64
final
C          6.19676       -5.29543        1.84978
O          5.33667       -4.62399        0.99286
C          5.55859       -3.24355        0.92744
C          4.56744       -2.62364       -0.04137
C          4.74943       -1.10673       -0.14419
N          3.84730       -0.48287       -1.07807
C          2.46313       -0.14796       -0.75880
H          1.97333       -1.04105       -0.39253
C          1.91650        0.32927       -2.09666
C          2.93702        0.29069       -3.08186
C          4.17286       -0.30175       -2.37950
O          5.23632       -0.56747       -2.86989
O          2.98018        0.58585       -4.25033
C          0.59853        0.80810       -2.32314
O          0.19371        1.38922       -3.31061
C         -0.45966        0.59554       -1.24209
C         -1.22156        1.68965       -0.83763
C         -2.24969        1.54161        0.06981
C         -2.54890        0.27549        0.56372
C         -1.80555       -0.82555        0.16972
C         -0.76196       -0.65762       -0.72660
S         -3.93395        0.06025        1.63857
O         -3.73674       -1.14391        2.38870
O         -4.17479        1.30177        2.31162
N         -5.25165       -0.20609        0.67865
C         -5.32003       -1.48934       -0.02419
C         -6.76999       -1.78899       -0.39494
C         -7.38224       -0.64886       -1.20917
C         -7.21668        0.67898       -0.46946
C         -5.75752        0.92841       -0.09762
C          2.41218        0.88727        0.36970
C          2.77699        2.21514        0.15840
C          2.74326        3.14838        1.17740
C          2.33028        2.77289        2.44890
C          1.96492        1.46358        2.69122
C          2.02116        0.55492        1.65140
F          1.68127       -0.71052        1.92657
H          7.23663       -5.18423        1.54423
H          6.10271       -4.93854        2.87498
H          5.93674       -6.34577        1.82228
H          5.44694       -2.80547        1.92042
H          6.58080       -3.04858        0.60134
H          4.70227       -3.06781       -1.02137
H          3.56207       -2.86125        0.29142
H          4.61357       -0.64877        0.83065
H          5.75430       -0.88091       -0.47577
H         -0.99877        2.65560       -1.24927
H         -2.81247        2.39304        0.40224
H         -2.02846       -1.79608        0.57014
H         -0.19199       -1.51256       -1.03873
H         -4.70434       -1.46336       -0.92342
H         -4.93587       -2.25673        0.62856
H         -6.80459       -2.71980       -0.95452
H         -7.33914       -1.93612        0.51856
H         -6.88666       -0.58829       -2.17645
H         -8.43258       -0.84493       -1.40570
H         -7.56930        1.50427       -1.08208
H         -7.81079        0.67046        0.43996
H         -5.67320        1.81856        0.50493
H         -5.16254        1.06701       -1.00038
H          3.07495        2.50822       -0.83118
H          3.02824        4.16663        0.98062
H          2.29000        3.49553        3.24469
H          1.63650        1.13198        3.65878
