60
final
C          8.76246        0.74817        1.72841
C          8.15177        0.75312        0.34421
O          6.76932        0.40818        0.48496
C          6.04209        0.35042       -0.61040
O          6.45850        0.56872       -1.70315
C          4.61646       -0.02114       -0.34391
C          3.76228       -0.14027       -1.43126
C          2.43426       -0.47271       -1.24345
C          1.96672       -0.69388        0.04209
C          2.81018       -0.58897        1.13462
C          4.13620       -0.24659        0.93834
N          0.58807       -1.04150        0.25551
C         -0.07253       -2.05507       -0.42143
O          0.29664       -2.61463       -1.39621
C         -1.39827       -2.29277        0.29526
H         -1.24968       -3.12366        0.96965
C         -2.56287       -2.56292       -0.64130
H         -2.22914       -3.03225       -1.55327
N         -3.01117       -1.14351       -0.99616
H         -2.58779       -0.86339       -1.86861
H         -4.00924       -1.10894       -1.14733
C         -2.60489       -0.14667        0.08885
C         -1.63907       -0.96703        1.00994
H         -2.07228       -1.06570        1.99403
C         -0.24265       -0.36739        1.13915
O          0.05892        0.51602        1.86178
C         -2.15436        1.18093       -0.47127
C         -1.14425        1.50581       -1.35067
C         -0.94037        2.84096       -1.65780
C         -1.72904        3.81429       -1.06803
C         -2.75779        3.52560       -0.16342
C         -2.93803        2.18106        0.09477
N         -3.91445        1.59195        0.92034
C         -3.88054        0.24994        0.86734
O         -4.66760       -0.53753        1.29297
C         -3.59849        4.60741        0.47034
Cl        -1.41512        5.46469       -1.48642
C         -3.73143       -3.34208       -0.03750
C         -3.32769       -4.79631        0.18186
O         -2.19566       -5.15084        0.00414
N         -4.31356       -5.61132        0.58171
H          8.27187        1.47135        2.36979
H          8.67777       -0.23155        2.18436
H          9.81407        1.00576        1.66446
H          8.21863        1.72492       -0.12367
H          8.62229        0.03121       -0.30774
H          4.14650        0.02927       -2.41829
H          1.78487       -0.58405       -2.08921
H          2.43923       -0.76042        2.12612
H          4.79442       -0.15984        1.77990
H         -0.50948        0.76173       -1.79714
H         -0.16567        3.12956       -2.34037
H         -4.66415        2.07217        1.36778
H         -4.15928        5.15195       -0.28006
H         -4.30207        4.20415        1.18659
H         -2.97224        5.31857        0.99409
H         -4.06050       -2.90342        0.89677
H         -4.58124       -3.31521       -0.71473
H         -5.24612       -5.30438        0.73741
H         -4.09708       -6.56951        0.75113
