71
final
C          2.26616       -3.97813        2.24439
C          1.53827       -2.63647        2.39412
C          1.80615       -1.69650        1.25016
C          1.19677       -1.64096       -0.03660
C          1.88411       -0.63859       -0.67289
N          2.80462       -0.16420        0.16948
N          2.74344       -0.80617        1.35088
C          3.77123        0.86601       -0.03122
C          3.98188        1.78858        0.98243
C          4.92272        2.78745        0.81812
C          5.62866        2.84853       -0.36570
C          5.43352        1.93804       -1.38126
C          4.50144        0.92989       -1.20643
F          6.52368        3.80936       -0.52863
O          1.77387       -0.22006       -1.93845
C          0.88670        0.78570       -2.28258
C          0.33055        0.69168       -3.54555
C         -0.54795        1.67356       -3.97089
C         -0.87135        2.73497       -3.13825
C         -0.29905        2.81448       -1.88023
C          0.58931        1.84159       -1.44157
C          0.17869       -2.53294       -0.66036
N         -1.21734       -2.37313       -0.08943
H         -1.12746       -2.35160        0.91524
C         -1.81372       -1.03807       -0.41701
C         -2.96294       -0.69297        0.52997
H         -3.86057       -1.23737        0.25326
C         -3.27307        0.80736        0.48275
C         -4.39483        1.17985        1.43019
C         -4.11495        1.64001        2.71223
C         -5.14108        1.94452        3.59551
C         -6.45998        1.79392        3.20490
C         -6.75023        1.34057        1.92638
C         -5.72555        1.03587        1.04772
O         -2.52897       -1.11216        1.79849
C         -2.14038       -3.54661       -0.39067
C         -2.15663       -3.90583       -1.87301
C         -1.79170       -4.73354        0.50326
H          3.33680       -3.82259        2.18927
H          2.05982       -4.61821        3.09491
H          1.96155       -4.50901        1.34708
H          0.46935       -2.80534        2.50455
H          1.86547       -2.14819        3.30320
H          3.42538        1.71241        1.89645
H          5.11091        3.51111        1.58801
H          6.01243        2.01261       -2.28182
H          4.35245        0.20170       -1.97946
H          0.60309       -0.12997       -4.18177
H         -0.97530        1.61045       -4.95495
H         -1.54908        3.49822       -3.47305
H         -0.52729        3.64420       -1.23630
H          1.05130        1.92529       -0.47641
H          0.10912       -2.33787       -1.71925
H          0.43814       -3.57073       -0.52444
H         -1.02210       -0.31848       -0.29445
H         -2.12587       -1.03818       -1.45046
H         -2.37271        1.35560        0.73803
H         -3.53671        1.07782       -0.53559
H         -3.09246        1.78027        3.01936
H         -4.90775        2.30576        4.58061
H         -7.25598        2.03450        3.88552
H         -7.77276        1.23142        1.61353
H         -5.96391        0.69690        0.05377
H         -3.14767       -0.83861        2.46658
H         -3.11963       -3.19765       -0.10414
H         -1.22841       -4.35985       -2.19657
H         -2.94591       -4.62961       -2.03556
H         -2.36633       -3.05340       -2.50826
H         -1.79817       -4.45555        1.55178
H         -2.54333       -5.50141        0.36648
H         -0.83184       -5.17408        0.26284
