63
final
C        -11.23270        0.17139        1.63733
C         -9.95238        0.37149        2.12529
C         -8.86096       -0.23373        1.52187
C         -9.06215       -1.04030        0.41368
C        -10.33754       -1.24945       -0.08428
C        -11.41897       -0.64497        0.53225
O         -8.04325       -1.70806       -0.20674
C         -6.81265       -1.13223       -0.34088
C         -5.70700       -1.83707        0.09045
C         -4.42774       -1.33292       -0.08657
C         -4.25471       -0.09705       -0.69534
C         -5.37438        0.60824       -1.12495
C         -6.64570        0.09662       -0.95772
N         -2.99239        0.49747       -0.92716
C         -1.76759        0.09756       -0.50143
O         -1.55945       -0.89067        0.14513
C         -0.64083        1.03860       -0.90842
C          0.72639        0.42073       -0.63761
C          1.86923        1.38720       -0.95825
H          1.81891        1.68896       -2.00016
C          3.22615        0.73826       -0.71400
O          3.70946       -0.24958       -1.18030
N          3.84504        1.54575        0.21067
C          2.96681        2.57818        0.50275
N          1.87270        2.57060       -0.10404
O          3.38863        3.46057        1.38376
C          5.11163        1.22157        0.81690
C          6.27750        1.47352       -0.16944
C          7.49921        0.68631        0.19326
C          7.71626       -0.63712        0.00133
C          6.90740       -1.67750       -0.59181
C          7.41520       -2.91903       -0.64293
C          8.73293       -3.19954       -0.11935
C          9.53874       -2.26649        0.44982
C          9.02840       -0.95091        0.51743
N          9.58258        0.13859        1.00811
H         10.49309        0.18379        1.41103
C          8.70413        1.27751        0.86018
H        -12.07400        0.64219        2.11235
H         -9.79655        0.99679        2.98623
H         -7.87081       -0.08423        1.90955
H        -10.46391       -1.88459       -0.94120
H        -12.40835       -0.81001        0.14490
H         -5.85027       -2.79250        0.55988
H         -3.58169       -1.89135        0.25113
H         -5.25542        1.56588       -1.60288
H         -7.50118        0.64700       -1.30236
H         -3.02147        1.34460       -1.44777
H         -0.74314        1.29149       -1.96088
H         -0.74964        1.96460       -0.35207
H          0.78594        0.12461        0.40226
H          0.85509       -0.47741       -1.22993
H          2.70534        4.11126        1.51795
H          5.22695        1.81210        1.71303
H          5.08419        0.17774        1.09819
H          5.96136        1.16400       -1.15667
H          6.50440        2.53225       -0.20979
H          5.92733       -1.44632       -0.96768
H          6.85447       -3.72691       -1.07164
H          9.08968       -4.21129       -0.18818
H         10.51268       -2.50928        0.82905
H          9.15645        2.04805        0.24322
H          8.45405        1.71380        1.82290
