74
final
C         -9.50677        1.58329       -1.61070
C         -8.29331        1.49924       -0.70892
O         -7.47245        0.45849       -1.19822
C         -6.32388        0.14865       -0.59408
C         -5.60863       -0.91301       -1.15732
C         -4.41902       -1.31250       -0.60475
C         -3.88709       -0.65212        0.50762
C         -4.60900        0.39210        1.06412
C         -5.82152        0.79623        0.52841
C         -2.61935       -1.16026        1.08888
O         -2.28797       -2.31393        0.96614
N         -1.83248       -0.27042        1.79670
C         -1.55951        1.09460        1.32651
C         -0.02306        1.25544        1.43339
H          0.21080        1.78738        2.35098
C          0.51764       -0.19882        1.59807
C         -0.63766       -0.78454        2.42897
C          0.66178       -0.91853        0.23916
C          1.18916       -2.33794        0.37596
N          2.50657       -2.30823        1.10382
H          2.87380       -3.24382        1.19181
H          3.18708       -1.80567        0.54826
C          2.41315       -1.67155        2.45851
C          1.86740       -0.25214        2.33027
C          0.57990        2.01131        0.25448
O          0.13259        1.91099       -0.85793
N          1.67890        2.73986        0.52991
C          2.46983        3.38190       -0.50221
C          3.29255        2.39221       -1.32135
H          2.60538        1.70458       -1.79326
C          4.14863        3.09505       -2.36413
O          4.10758        1.69015       -0.39191
C          4.54068        0.43331       -0.62133
C          5.34528       -0.11892        0.38241
C          5.81944       -1.40715        0.28133
C          5.50558       -2.19738       -0.82910
C          4.71802       -1.65432       -1.82592
C          4.24036       -0.34307       -1.72564
O          5.98316       -3.45782       -0.81740
C          6.05302       -4.18551       -2.01980
H         -9.20874        1.79715       -2.63021
H        -10.05291        0.64765       -1.60088
H        -10.16778        2.37323       -1.27050
H         -7.74036        2.43285       -0.71644
H         -8.58535        1.28224        0.31318
H         -6.01962       -1.40622       -2.01764
H         -3.88433       -2.14324       -1.02437
H         -4.24847        0.88722        1.94631
H         -6.35941        1.59800        0.99370
H         -1.89041        1.22701        0.30942
H         -2.05280        1.83207        1.94598
H         -0.57498       -0.40339        3.44580
H         -0.67869       -1.85839        2.47637
H         -0.28123       -0.96858       -0.28373
H          1.33549       -0.36564       -0.40380
H          0.52411       -2.97859        0.93477
H          1.37436       -2.78593       -0.58955
H          1.77235       -2.30604        3.05441
H          3.40608       -1.68143        2.88419
H          2.60054        0.35465        1.80926
H          1.77513        0.15130        3.33346
H          2.01621        2.77840        1.46290
H          1.81417        3.92868       -1.16558
H          3.12892        4.08926       -0.01631
H          4.74800        2.38547       -2.92207
H          3.52285        3.63210       -3.06864
H          4.82109        3.80069       -1.88905
H          5.60826        0.49577        1.22378
H          6.45880       -1.81883        1.04072
H          4.47321       -2.21891       -2.70516
H          3.65296        0.04255       -2.53538
H          5.06529       -4.46382       -2.37174
H          6.56515       -3.61863       -2.78814
H          6.61278       -5.08023       -1.79776
