82
final
C        -15.56906        4.32962        0.99188
C        -15.00081        3.47378       -0.14595
C        -13.58069        3.84799       -0.48282
C        -12.48768        3.10753       -0.40327
C        -12.35820        1.66743        0.03589
C        -11.87939        0.78970       -1.09713
C        -10.75148        0.10548       -1.19033
C         -9.62873       -0.00227       -0.18478
C         -9.47918       -1.41846        0.32075
C         -8.45601       -2.24248        0.16745
C         -7.14779       -2.00048       -0.53950
C         -5.94686       -2.07502        0.41330
C         -4.60535       -1.89924       -0.30013
C         -3.40558       -1.97014        0.64629
C         -2.06358       -1.79345       -0.06632
C         -0.86853       -1.86602        0.88560
C          0.46124       -1.68675        0.15956
C          1.65885       -1.75431        1.07538
O          1.62159       -1.92957        2.25121
O          2.78801       -1.59229        0.39952
C          3.99766       -1.61319        1.13354
C          5.12735       -1.27508        0.17129
H          5.06371       -1.93855       -0.68166
C          6.47246       -1.48764        0.85611
O          7.51567       -1.33842       -0.07617
C          8.66036       -0.72503        0.41396
H          9.00493       -1.22971        1.31144
C          9.74230       -0.81920       -0.66374
H          9.70647       -1.81087       -1.10333
C          9.54464        0.21857       -1.77519
H          8.74840       -0.13934       -2.41678
C          9.12961        1.60276       -1.25891
H          8.74685        2.16424       -2.11063
C          8.01021        1.43612       -0.24834
H          7.16496        1.00039       -0.76323
O          8.41857        0.57721        0.79670
C          7.54583        2.72014        0.39920
O          6.32282        2.43851        1.04744
O         10.18543        2.29915       -0.66859
O         10.70337        0.32278       -2.55624
O         11.01361       -0.58745       -0.10579
O          4.98866        0.01577       -0.34188
H        -15.00489        4.18133        1.90703
H        -15.52769        5.38652        0.74516
H        -16.60602        4.07541        1.18879
H        -15.07890        2.42559        0.11641
H        -15.61650        3.61465       -1.03235
H        -13.46012        4.86522       -0.82497
H        -11.55464        3.56361       -0.69574
H        -11.67362        1.61815        0.87563
H        -13.30955        1.28871        0.39309
H        -12.56004        0.74075       -1.93281
H        -10.59315       -0.47018       -2.08899
H         -8.70971        0.33756       -0.64956
H         -9.80577        0.65383        0.66046
H        -10.33673       -1.78435        0.86374
H         -8.54697       -3.22370        0.60907
H         -7.02776       -2.75634       -1.31445
H         -7.14687       -1.04211       -1.04622
H         -6.05590       -1.31250        1.18108
H         -5.95764       -3.03248        0.93082
H         -4.50366       -2.66404       -1.06839
H         -4.59686       -0.94275       -0.82031
H         -3.50733       -1.20594        1.41458
H         -3.41285       -2.92652        1.16595
H         -1.96190       -2.55754       -0.83543
H         -2.05598       -0.83666       -0.58599
H         -0.96206       -1.10476        1.65382
H         -0.86755       -2.81946        1.40467
H          0.59644       -2.44421       -0.60773
H          0.50373       -0.73247       -0.35796
H          3.94480       -0.89049        1.93807
H          4.12997       -2.59449        1.57220
H          6.58655       -0.77057        1.66096
H          6.52131       -2.48730        1.27995
H          8.29137        3.06338        1.10461
H          7.40341        3.48302       -0.36102
H          6.06546        3.17540        1.58302
H         10.91558        2.29750       -1.27326
H         11.44293        0.08671       -2.00877
H         11.28606       -1.33201        0.41191
H          5.20559        0.67531        0.30981
