63
final
C          0.11438        3.74762       -3.18015
C         -1.24055        3.52753       -2.76966
C         -1.21797        2.45539       -1.95928
O          0.04778        1.99532       -1.83840
C          0.83301        2.79026       -2.57463
C         -2.37321        1.86740       -1.23330
O         -3.40859        2.48446       -1.26366
N         -2.27236        0.68418       -0.57642
C         -3.39119        0.30890        0.28468
C         -4.43480       -0.52225       -0.46000
N         -5.52075       -0.92368        0.41757
C         -6.18414       -2.14077       -0.01762
C         -7.23467       -2.54619        1.00360
O         -8.16027       -1.51813        1.21066
C         -7.54631       -0.33114        1.62983
C         -6.50487        0.12920        0.62384
C         -1.11537       -0.17369       -0.55396
C         -0.11748        0.22317        0.53020
O         -0.29374        1.13763        1.28189
N          1.00819       -0.53581        0.60537
C          2.05281       -0.33874        1.61408
H          1.58325       -0.18895        2.57481
C          2.78260       -1.69968        1.55042
C          2.11089       -2.36409        0.36803
N          1.14391       -1.70475       -0.10017
C          2.50904       -3.65641       -0.19492
C          1.98590       -4.28421       -1.27272
C          2.60983       -5.54161       -1.54405
C          3.58943       -5.83329       -0.66678
S          3.78735       -4.59695        0.51303
C          2.93159        0.86034        1.30673
C          3.01143        1.91701        2.19754
C          3.82344        3.01193        1.93966
C          4.55752        3.04547        0.77258
C          4.48847        2.00580       -0.14044
C          3.67561        0.92224        0.13183
Cl         5.58425        4.41372        0.43583
H          0.48631        4.51640       -3.82455
H         -2.11079        4.09151       -3.02725
H          1.87541        2.55839       -2.56362
H         -3.00164       -0.26290        1.11680
H         -3.82526        1.20992        0.68391
H         -4.79108        0.03504       -1.32608
H         -3.95437       -1.42049       -0.83557
H         -6.66157       -2.01589       -0.99413
H         -5.44931       -2.93437       -0.10746
H         -7.79226       -3.40699        0.65744
H         -6.74668       -2.80355        1.94234
H         -8.33005        0.40786        1.73268
H         -7.07744       -0.47755        2.60137
H         -6.01743        1.02129        0.99676
H         -7.00205        0.39372       -0.31332
H         -1.44691       -1.18587       -0.36428
H         -0.61468       -0.19796       -1.50702
H          3.85013       -1.59114        1.40869
H          2.62968       -2.28727        2.44967
H          1.18690       -3.86971       -1.85593
H          2.32956       -6.18234       -2.35799
H          4.21125       -6.70470       -0.64229
H          2.42459        1.90237        3.09778
H          3.87639        3.82780        2.63497
H          5.06547        2.04482       -1.04506
H          3.62168        0.12128       -0.58449
