61
final
C          4.59426       -3.97601       -0.16136
C          3.69365       -2.77587       -0.07801
C          4.01438       -1.46656       -0.08815
C          2.83479       -0.62427        0.04354
C          1.67998       -1.33290        0.13982
S          1.96733       -3.03361        0.08320
N          0.42311       -0.82779        0.25799
C          0.33231        0.44875        0.27561
N          1.40750        1.29250        0.18355
C          2.74038        0.82381        0.05749
O          3.63933        1.60458       -0.02209
C          1.23393        2.72426        0.20605
C          1.26067        3.39700        1.41418
C          1.09723        4.77135        1.43380
C          0.91429        5.46459        0.24827
C          0.89735        4.78473       -0.95886
C          1.06021        3.41044       -0.98219
S         -1.25425        1.21896        0.42299
C         -2.27152       -0.28051        0.51172
C         -3.72713        0.13458        0.67150
O         -4.03945        1.29640        0.62668
N         -4.62565       -0.85899        0.85865
C         -4.30798       -2.27371        0.89891
C         -6.02177       -0.51269        1.11129
C         -6.92710       -0.74928       -0.08179
C         -7.92488       -1.71108       -0.04277
C         -8.75639       -1.91813       -1.13610
C         -8.59347       -1.16096       -2.28056
C         -7.59871       -0.19249       -2.32804
C         -6.77388        0.01292       -1.23843
C          5.41389       -0.96198       -0.21879
C          6.11444       -1.13521       -1.40564
C          7.42488       -0.69750       -1.52412
C          8.04900       -0.08162       -0.45404
C          7.35614        0.09809        0.73389
C          6.04881       -0.33693        0.84940
H          4.39688       -4.66613        0.65288
H          4.44839       -4.51560       -1.09250
H          5.63047       -3.67389       -0.10487
H          1.40731        2.84855        2.32632
H          1.11383        5.29723        2.37089
H          0.78677        6.53195        0.26491
H          0.75913        5.32110       -1.87979
H          1.05377        2.87243       -1.91207
H         -2.13588       -0.85758       -0.39128
H         -1.94548       -0.89155        1.33946
H         -4.24462       -2.63544        1.92180
H         -5.08763       -2.82338        0.38792
H         -3.37766       -2.49045        0.39905
H         -6.36373       -1.10586        1.95314
H         -6.05285        0.52403        1.40396
H         -8.06200       -2.30303        0.84623
H         -9.52542       -2.66854       -1.08864
H         -9.23523       -1.31772       -3.12914
H         -7.47217        0.40456       -3.21362
H         -6.01206        0.77103       -1.27386
H          5.63048       -1.60749       -2.24187
H          7.95217       -0.83628       -2.45119
H          9.06494        0.25968       -0.54357
H          7.83346        0.58002        1.56835
H          5.51468       -0.18674        1.76982
