67
final
C          1.08746        7.26692        1.95926
O          0.91853        6.16542        1.09451
C          0.66924        6.48889       -0.23427
C          0.63148        5.17123       -0.98905
N         -0.30558        4.24216       -0.28642
H         -0.04014        4.24243        0.68991
H         -1.23279        4.64161       -0.30888
C         -0.39641        2.82075       -0.80103
H         -0.53121        2.91074       -1.87206
C          0.86605        2.03858       -0.47174
C          0.73230        0.56237       -0.90225
H          0.65973        0.54023       -1.98607
N         -0.46541       -0.03400       -0.29989
C         -1.68635        0.70435       -0.65727
H         -1.81638        0.72167       -1.73703
C         -1.60218        2.14964       -0.16811
C         -2.90479        0.04615       -0.06757
N         -4.05774        0.60311       -0.04857
C         -4.89303       -0.35325        0.52855
C         -6.20488       -0.26621        0.76188
C         -6.91256       -1.39317        1.37296
C         -6.28112       -2.51236        1.71267
C         -4.80481       -2.72683        1.50940
C         -4.13248       -1.55216        0.86775
C         -2.86781       -1.29713        0.49180
C         -1.57857       -2.05246        0.57139
C         -0.57989       -1.48642       -0.45205
H          0.38251       -1.92023       -0.22237
C         -0.87011       -1.93706       -1.88508
O         -0.88730       -1.21375       -2.83240
O         -1.03976       -3.23873       -1.95875
C         -1.25824       -3.80296       -3.24786
C          2.01649       -0.15200       -0.50695
C          2.91535       -0.54887       -1.48099
C          4.11975       -1.15190       -1.13587
C          4.42340       -1.36479        0.19243
C          3.52321       -0.97913        1.18094
C          2.33346       -0.37715        0.83376
C          5.72340       -1.99944        0.60652
F          6.48809       -1.14058        1.26256
F          5.52043       -3.02649        1.41508
F          6.41568       -2.43566       -0.42903
H          1.93750        7.86550        1.65183
H          0.19608        7.88546        1.97326
H          1.26610        6.86958        2.94610
H         -0.27407        7.02421       -0.33495
H          1.45224        7.11304       -0.65425
H          0.29035        5.28988       -2.00754
H          1.60568        4.71002       -0.98400
H          1.73632        2.45102       -0.96843
H          1.04263        2.08200        0.59879
H         -1.50690        2.15597        0.91421
H         -2.52666        2.65106       -0.43053
H         -6.74860        0.62381        0.50247
H         -7.96887       -1.29349        1.54218
H         -6.82771       -3.32333        2.16005
H         -4.34557       -2.94506        2.47255
H         -4.65567       -3.62255        0.90830
H         -1.13245       -1.93326        1.55455
H         -1.71601       -3.11229        0.40485
H         -2.15326       -3.39066       -3.68860
H         -0.41321       -3.60503       -3.88995
H         -1.36920       -4.86255       -3.08638
H          2.68316       -0.39876       -2.52037
H          4.80523       -1.45489       -1.90349
H          3.75531       -1.15474        2.21536
H          1.63630       -0.09676        1.60247
