65
final
C         -7.84599       -0.86901        3.34232
C         -6.80239       -0.64429        2.27281
C         -6.45946       -1.70069        1.40483
C         -5.51748       -1.55979        0.41341
C         -4.88168       -0.32593        0.27436
C         -5.23871        0.71393        1.11787
C         -6.18781        0.58210        2.12492
N         -4.46975        1.77751        0.69648
H         -4.42735        2.68020        1.11316
C         -3.70184        1.34945       -0.32980
N         -3.90009        0.10029       -0.61851
C         -2.82155        2.34863       -1.05965
H         -2.55911        3.12418       -0.35208
C         -3.58703        2.97136       -2.23060
N         -1.59790        1.75126       -1.54133
C         -0.60862        1.37556       -0.69611
O         -0.63344        1.66181        0.46882
C          0.45180        0.46009       -1.29352
H          0.65472        0.75998       -2.31809
C          1.76687        0.44113       -0.50286
N          2.23243       -0.93477       -0.65966
C          1.34545       -1.74247       -1.47032
C         -0.01089       -1.03379       -1.32622
C         -0.67031       -1.42415        0.02337
C         -1.44927       -2.72956       -0.01583
N         -2.42152       -2.66711       -1.15641
H         -3.04658       -3.45740       -1.12773
H         -2.99142       -1.82449       -1.05940
C         -1.70040       -2.61374       -2.46508
C         -0.94805       -1.29313       -2.52416
C          3.33529       -1.49094       -0.10693
O          3.62147       -2.64130       -0.27107
C          4.18806       -0.59704        0.75878
C          5.05344        0.33713        0.22801
C          5.90973        1.08305        1.00599
C          5.89604        0.88787        2.37519
C          5.03696       -0.03469        2.94881
C          4.20157       -0.76878        2.13092
F          3.36493       -1.64149        2.65728
Cl         5.00437       -0.27211        4.66054
F          5.04165        0.52055       -1.08645
H         -7.53640       -1.64968        4.02981
H         -8.02083        0.03107        3.91844
H         -8.79106       -1.17396        2.90488
H         -6.96408       -2.64377        1.51866
H         -5.31374       -2.37850       -0.25541
H         -6.43947        1.40794        2.76540
H         -2.97875        3.72906       -2.71098
H         -3.85604        2.21579       -2.96100
H         -4.50025        3.43883       -1.88448
H         -1.50459        1.59414       -2.51750
H          2.47417        1.14995       -0.91098
H          1.59305        0.68435        0.53508
H          1.67085       -1.75646       -2.50757
H          1.35049       -2.76220       -1.11357
H          0.08899       -1.50938        0.79074
H         -1.35246       -0.65821        0.35721
H         -0.83253       -3.60247       -0.17852
H         -2.01747       -2.86736        0.89264
H         -1.05710       -3.48167       -2.51109
H         -2.43514       -2.68195       -3.25465
H         -1.69905       -0.51829       -2.57830
H         -0.38411       -1.26120       -3.44970
H          6.57077        1.79160        0.54583
H          6.55191        1.45490        3.00727
