56
final
C         -0.35637        4.66999        1.79714
C         -0.27054        3.35868        1.05061
C         -0.59599        2.15882        1.65332
C         -0.50746        0.95883        0.95317
C         -0.09923        0.92975       -0.36636
C          0.22090        2.14207       -0.97844
C          0.14223        3.32846       -0.28298
C         -0.01080       -0.38569       -1.14172
H         -0.23211       -1.18698       -0.44260
C         -0.85232       -0.44424       -2.40452
C         -0.04525       -0.57715       -3.54977
C          1.40053       -0.73543       -3.04336
O          2.37220       -0.96968       -3.68204
N          1.35418       -0.59297       -1.65708
C          2.44868       -0.72814       -0.84326
N          3.61438       -0.29873       -1.09217
C          4.50931       -0.65103       -0.10049
C          5.86126       -0.32246       -0.10151
C          6.65497       -0.70625        0.95966
C          6.08927       -1.41143        2.01134
C          4.76085       -1.75465        2.05206
C          3.97951       -1.36702        0.97219
S          2.28203       -1.63130        0.68659
F          6.87627       -1.77337        3.02997
O         -0.26402       -0.63211       -4.73674
C         -2.27882       -0.28080       -2.43177
O         -2.92876        0.04752       -3.40022
C         -3.06809       -0.54194       -1.15863
C         -2.90464       -1.69628       -0.40515
C         -3.68429       -1.96085        0.71854
C         -4.62731       -1.02252        1.06671
C         -4.82318        0.13140        0.32791
C         -4.06210        0.36758       -0.79350
C         -5.96195        0.89111        0.96237
C         -6.10345        0.14817        2.30819
H         -5.54350        0.68159        3.07154
O         -5.46587       -1.11579        2.13020
C         -7.52402       -0.08244        2.78180
H          0.61056        5.16433        1.83888
H         -1.04843        5.35461        1.31403
H         -0.69570        4.52128        2.81656
H         -0.92207        2.14582        2.67976
H         -0.77311        0.04186        1.44888
H          0.52616        2.14770       -2.00883
H          0.39890        4.24944       -0.77983
H          6.26805        0.22486       -0.93090
H          7.70247       -0.47158        0.99186
H          4.36724       -2.30163        2.88771
H         -2.16739       -2.41682       -0.70988
H         -3.56030       -2.86130        1.29177
H         -4.21555        1.23990       -1.40180
H         -5.75669        1.94556        1.10957
H         -6.87024        0.81171        0.36887
H         -8.08475       -0.63684        2.03693
H         -7.53110       -0.64875        3.70674
H         -8.02359        0.86622        2.95663
