58
final
C         -2.29532        2.16102       -3.64307
C         -3.10339        1.67110       -2.47358
O         -3.78184        2.36729       -1.77732
O         -2.98017        0.36883       -2.32296
C         -3.67954       -0.30302       -1.28066
C         -2.79328       -1.40983       -0.74901
H         -2.35626       -1.94873       -1.58729
C         -3.57602       -2.39166        0.11693
H         -4.06401       -1.84237        0.91821
C         -2.62170       -3.41054        0.72846
H         -2.20606       -4.00616       -0.07737
C         -1.49437       -2.71620        1.47715
H         -0.73063       -3.43252        1.75788
C         -0.84897       -1.65068        0.59631
H         -0.24853       -2.12161       -0.17559
O         -1.78587       -0.80132        0.02178
O         -0.04761       -0.86589        1.42390
C          1.18570       -0.48895        0.98904
C          2.23603       -1.50245        1.06907
O          1.99063       -2.64209        1.42039
C          3.55771       -1.05427        0.67571
C          4.68564       -1.90397        0.70313
C          5.92257       -1.42608        0.31903
C          6.04952       -0.10348       -0.09578
C          4.96358        0.75942       -0.13770
C          3.73977        0.26134        0.25129
O          2.69706        1.11055        0.20539
C          1.44837        0.75753        0.56620
C          0.48489        1.86184        0.36933
C         -0.65686        1.98772        1.15142
C         -1.59176        2.95991        0.84938
C         -1.40446        3.79548       -0.23233
C         -0.23115        3.72215       -0.97346
C          0.71113        2.76038       -0.67262
O         -0.02646        4.55378       -2.01589
O         -2.34240        4.70233       -0.62922
O          7.23118        0.39496       -0.47536
O          4.59126       -3.16581        1.09184
O         -2.07293       -2.14484        2.62005
O         -3.32246       -4.29799        1.55373
O         -4.52149       -3.03152       -0.69170
H         -2.34968        3.23707       -3.70534
H         -1.26487        1.84832       -3.53542
H         -2.68504        1.71997       -4.55363
H         -3.92099        0.39133       -0.49304
H         -4.58466       -0.71782       -1.69770
H          6.76864       -2.08799        0.34695
H          5.07575        1.77580       -0.45752
H         -0.83673        1.31613        1.96344
H         -2.49236        3.05247        1.42783
H          1.59444        2.70099       -1.27740
H         -0.74202        5.17864       -2.04484
H         -3.10692        4.22365       -0.94418
H          7.91392       -0.25945       -0.41270
H          3.68210       -3.36644        1.32268
H         -1.40611       -1.66342        3.09311
H         -3.42297       -3.88951        2.40615
H         -4.88674       -3.75747       -0.20030
