64
final
C         10.10668        2.66524        0.67419
C          9.66245        1.53542       -0.25120
C         10.54399        0.30449       -0.10601
O          8.34746        1.12351        0.03192
C          7.31619        1.91990       -0.46963
C          5.99610        1.23901       -0.14773
C          4.79904        2.03212       -0.66022
N          3.56821        1.34442       -0.33002
C          2.36730        1.84385       -0.66455
O          2.24449        2.90042       -1.26068
C          1.20357        1.05254       -0.27574
C          1.11292       -0.19668        0.41747
C         -0.29787       -0.52380        0.53582
N         -0.75873       -1.56484        1.09589
C          0.19434       -2.41326        1.61282
C         -0.21918       -3.59573        2.25403
C          0.70399       -4.45486        2.77556
C          2.07854       -4.16181        2.67453
C          2.49891       -3.02032        2.05650
C          1.56356       -2.11781        1.51019
N          2.01408       -0.97997        0.89558
N         -0.99918        0.51177       -0.07419
C         -0.09634        1.43975       -0.55117
N         -0.51622        2.52419       -1.17575
N         -2.32723        0.73487       -0.25930
C         -3.18213       -0.08914        0.16184
C         -4.62473        0.15443       -0.03994
C         -5.52310       -0.78814        0.44542
C         -6.88556       -0.60957        0.28359
C         -7.36379        0.51707       -0.36731
C         -6.46821        1.46536       -0.85598
C         -5.11082        1.28536       -0.69359
C         -8.84070        0.66659       -0.51814
O         -9.63045       -0.12603       -0.11156
O         -9.18556        1.77456       -1.15253
C        -10.57253        2.00001       -1.34164
H         11.13195        2.95146        0.46065
H          9.48835        3.54862        0.55861
H         10.04795        2.34391        1.70912
H          9.70919        1.88242       -1.28321
H         10.49346       -0.07485        0.90929
H         10.21016       -0.47862       -0.77695
H         11.57864        0.53985       -0.33482
H          7.33908        2.91400       -0.02848
H          7.42678        2.04035       -1.54706
H          6.00182        0.24625       -0.58810
H          5.92468        1.11231        0.92857
H          4.78647        3.02505       -0.22344
H          4.86350        2.16391       -1.73528
H          3.60311        0.47442        0.15534
H         -1.27276       -3.79666        2.31826
H          0.38564       -5.35744        3.26488
H          2.79862       -4.84451        3.08838
H          3.54208       -2.77925        1.96946
H         -1.48653        2.68487       -1.30969
H          0.18373        3.15919       -1.49852
H         -2.90549       -0.98934        0.67712
H         -5.15840       -1.66440        0.95133
H         -7.58235       -1.33497        0.65687
H         -6.83766        2.33705       -1.35955
H         -4.42295        2.01696       -1.07072
H        -11.07786        2.06187       -0.38907
H        -10.64765        2.93794       -1.86880
H        -11.00777        1.20326       -1.92673
