68
final
C          2.37165        1.16049       -2.24577
C          0.99470        0.49432       -2.20701
C          0.57069       -0.06408       -0.83150
C          1.65803       -0.99631       -0.29085
O          1.96182       -2.05040       -0.75737
N          2.17836       -0.41871        0.82461
C          1.56493        0.79623        1.11343
O          1.85401        1.53595        1.99257
N          0.53615        0.94560        0.21248
C          3.29366       -0.95414        1.59015
C          4.61087       -0.86755        0.83462
H          4.56553       -1.47026       -0.06638
C          5.78238       -1.34309        1.67870
O          6.96318       -1.24216        0.93415
C          7.13852       -0.04557        0.31216
C          8.40801        0.31003       -0.11099
C          8.61014        1.51912       -0.74910
C          7.54248        2.38098       -0.95904
C          6.27376        2.02340       -0.54330
C          6.06950        0.80708        0.08515
O          4.80553        0.47908        0.48291
C         -0.76041       -0.85740       -0.92146
C         -1.11589       -1.55715        0.39971
C         -2.42592       -2.32819        0.31193
N         -3.55174       -1.42598       -0.10146
H         -3.62463       -0.69251        0.59000
C         -3.24870       -0.77001       -1.41788
C         -1.94658        0.01839       -1.34917
C         -4.88134       -2.13159       -0.09012
C         -5.99052       -1.14541       -0.13575
C         -7.05889       -1.00044       -0.91995
C         -7.77727        0.14638       -0.39663
C         -8.95086        0.81879       -0.73715
C         -9.31484        1.90932        0.02149
C         -8.53249        2.33395        1.10403
C         -7.36806        1.68169        1.45551
C         -7.02663        0.59031        0.67929
O         -5.92938       -0.19973        0.84098
H          2.44145        1.99256       -1.55423
H          3.16864        0.46502       -2.01413
H          2.55513        1.54696       -3.24147
H          0.25022        1.21682       -2.52749
H          0.96981       -0.32412       -2.91842
H          0.26699        1.88593        0.01849
H          3.34544       -0.37617        2.50037
H          3.07922       -1.98699        1.83294
H          5.85730       -0.74192        2.58076
H          5.67579       -2.38315        1.95278
H          9.21793       -0.37102        0.07330
H          9.59758        1.79144       -1.07341
H          7.69729        3.32641       -1.44566
H          5.43137        2.67344       -0.69229
H         -0.60414       -1.62420       -1.67474
H         -0.35306       -2.27550        0.67294
H         -1.17694       -0.82938        1.20325
H         -2.37958       -3.12084       -0.42344
H         -2.69233       -2.75807        1.26712
H         -3.19220       -1.56754       -2.14745
H         -4.08590       -0.13462       -1.66324
H         -2.06692        0.84992       -0.65920
H         -1.79325        0.44324       -2.33267
H         -4.91342       -2.80802       -0.93099
H         -4.91489       -2.70425        0.82758
H         -7.32843       -1.61643       -1.75379
H         -9.55500        0.49604       -1.56498
H        -10.21457        2.44606       -0.21519
H         -8.84936        3.18659        1.67562
H         -6.76524        1.99592        2.28629
