62
final
C          7.23107       -3.74064       -1.04011
C          6.49322       -2.71194       -0.20993
H          7.09802       -2.41873        0.64187
C          6.02720       -1.45027       -0.96961
C          4.65127       -1.24460       -0.38600
C          3.75043       -0.21339       -0.48311
C          2.50186       -0.32841        0.14057
C          2.20092       -1.48849        0.84672
C          3.10448       -2.53882        0.94774
C          4.32187       -2.39103        0.32232
O          5.30286       -3.31004        0.31877
C          1.53803        0.78744        0.04880
C          0.10912        0.73167       -0.01667
C         -0.26047        2.04857       -0.11907
N          0.85120        2.78440       -0.10798
N          1.94787        2.02202        0.01313
C          0.96319        4.19709       -0.17911
C          1.98609        4.83329        0.50801
C          2.08697        6.21155        0.44891
C          1.17182        6.95596       -0.27951
C          0.15670        6.31065       -0.96421
C          0.05396        4.92980       -0.92543
C         -0.71943       -0.45416       -0.16760
C         -1.97884       -0.71238        0.22932
C         -2.81059        0.06271        1.15498
C         -4.13362       -0.15611        1.12862
C         -4.78261       -1.15186        0.24355
O         -5.97230       -1.20422        0.15524
N         -3.95531       -2.04402       -0.41278
C         -2.57418       -1.94463       -0.38782
O         -1.88156       -2.78195       -0.89094
C         -4.55834       -3.17868       -1.16960
C         -5.35260       -4.11374       -0.25897
C         -5.35428       -2.69224       -2.37992
C         -5.02430        0.56216        2.00371
N         -5.68352        1.15685        2.71266
C         -2.21217        0.99749        2.18225
H          8.15422       -3.31970       -1.42638
H          7.47583       -4.60925       -0.44002
H          6.61991       -4.06225       -1.87624
H          6.69881       -0.61560       -0.80637
H          5.97627       -1.62968       -2.04047
H          3.98552        0.67930       -1.03263
H          1.25653       -1.57651        1.35201
H          2.86944       -3.42965        1.49859
H         -1.22640        2.49200       -0.22456
H          2.68655        4.25033        1.07280
H          2.87987        6.70476        0.98131
H          1.25309        8.02692       -0.31683
H         -0.55043        6.87636       -1.54314
H         -0.71362        4.43372       -1.49022
H         -0.26864       -1.23645       -0.75040
H         -3.70474       -3.72175       -1.53211
H         -4.74530       -4.43412        0.58150
H         -6.25422       -3.65138        0.11599
H         -5.63045       -4.99919       -0.82223
H         -4.74781       -2.03689       -2.99709
H         -5.63367       -3.54962       -2.98455
H         -6.25378       -2.16811       -2.09189
H         -2.32740        2.03409        1.88873
H         -2.73183        0.87557        3.12299
H         -1.16346        0.79936        2.33578
