66
final
C          5.89898       -2.38684       -0.29259
C          4.44565       -2.07934       -0.02702
C          3.86183       -0.86566       -0.25723
C          2.43762       -0.62384        0.22895
H          1.91311       -0.01838       -0.48882
N          1.74258       -1.91191        0.28843
C          0.32130       -2.06449        0.29106
C         -0.00707       -3.36265        0.47064
S          1.40567       -4.39251        0.62655
C          2.44854       -3.03386        0.44071
N          3.75132       -3.15454        0.42055
C         -0.50565       -0.91853        0.11270
C         -1.90456       -1.02083        0.04004
N         -2.55329        0.22986       -0.07480
C         -3.89888        0.52840       -0.16075
C         -4.27420        1.87370       -0.18021
C         -5.60173        2.25159       -0.27668
C         -6.62224        1.31714       -0.35742
C         -6.23948       -0.02285       -0.33669
C         -4.92231       -0.42586       -0.24256
C         -8.07779        1.74630       -0.46174
C         -8.72489        1.29363       -1.77850
C         -8.90951        1.27965        0.74155
O         -2.57826       -2.04427        0.05820
C          2.40313        0.09849        1.58075
C          2.30156        1.48427        1.62022
C          2.31643        2.16292        2.82920
C          2.42829        1.46710        4.02008
C          2.52729        0.08520        3.99041
C          2.51551       -0.59184        2.78308
C          4.56514        0.20222       -0.94469
O          5.72392        0.23312       -1.26229
O          3.75268        1.22789       -1.25854
C          4.31749        2.31114       -1.95691
C          3.19456        3.21684       -2.40211
O          2.63568        3.85926       -1.29734
C          1.50164        4.61038       -1.58874
H          6.55065       -1.67097        0.18886
H          6.10417       -3.38473        0.06946
H          6.11319       -2.33846       -1.35362
H         -0.99453       -3.75732        0.51667
H         -0.05767        0.05323        0.13648
H         -1.95344        1.02052       -0.03433
H         -3.51352        2.63456       -0.11669
H         -5.83910        3.30318       -0.28715
H         -6.99189       -0.79190       -0.39652
H         -4.66404       -1.46226       -0.22713
H         -8.08993        2.83423       -0.45661
H         -8.76364        0.21060       -1.84674
H         -9.74354        1.66674       -1.86022
H         -8.16116        1.65707       -2.63146
H         -8.47617        1.63291        1.67145
H         -9.92941        1.65292        0.67815
H         -8.95709        0.19597        0.79131
H          2.22429        2.03899        0.70387
H          2.23609        3.23638        2.83592
H          2.43406        1.99230        4.95959
H          2.60954       -0.46959        4.90897
H          2.58922       -1.66314        2.78381
H          5.00733        2.84740       -1.31860
H          4.86197        1.95088       -2.81950
H          3.59144        3.95450       -3.10127
H          2.44230        2.63050       -2.92509
H          1.72107        5.40346       -2.30295
H          0.70657        3.98967       -1.99585
H          1.15939        5.05695       -0.66523
