76
final
C         -1.00909        2.42296        4.15909
C          0.05050        1.41547        3.69599
C         -0.44823        0.50494        2.60791
C         -0.50152        0.73678        1.20404
C         -1.10800       -0.39616        0.71658
N         -1.37027       -1.20203        1.74540
N         -0.95272       -0.65174        2.90278
C         -1.89634       -2.53049        1.73991
C         -1.25855       -3.49604        2.50236
C         -1.75993       -4.78513        2.52092
C         -2.88276       -5.11028        1.77562
C         -3.51212       -4.13689        1.01869
C         -3.02700       -2.83929        1.00424
O         -1.34975       -0.77071       -0.54161
C         -2.27643       -0.09058       -1.32127
C         -2.12604       -0.22496       -2.69490
C         -3.01761        0.38979       -3.54105
C         -4.07364        1.14938       -3.03157
C         -4.21561        1.27274       -1.66091
C         -3.31467        0.64504       -0.80177
O         -4.88055        1.71167       -3.94387
C         -6.01563        2.42822       -3.53253
C         -0.03213        1.92061        0.43584
N          1.44913        1.86743        0.09276
H          1.94228        1.55051        0.91517
C          1.73961        0.83035       -0.94827
C          3.19527        0.38442       -0.86750
H          3.86107        1.15384       -1.24662
C          3.44741       -0.88265       -1.67049
O          4.76861       -1.22429       -1.40954
C          5.20747       -2.43413       -1.99295
C          6.65373       -2.62795       -1.65746
C          7.13535       -3.70623       -1.07381
O          3.44719        0.16320        0.49154
C          1.97000        3.22739       -0.28903
C          2.30072        4.13219        0.90419
C          3.52818        3.64215        1.68144
C          2.52176        5.55722        0.38313
H         -1.33261        3.07125        3.34963
H         -1.88181        1.90539        4.53894
H         -0.61586        3.05043        4.95119
H          0.94007        1.94515        3.36254
H          0.35290        0.79728        4.53171
H         -0.39269       -3.23297        3.07848
H         -1.27106       -5.53496        3.11541
H         -3.26743       -6.11352        1.79048
H         -4.38943       -4.37945        0.44762
H         -3.53322       -2.08352        0.43547
H         -1.32296       -0.82450       -3.08197
H         -2.92377        0.29263       -4.60612
H         -5.01934        1.83988       -1.23457
H         -3.44740        0.74198        0.25988
H         -6.51215        2.74583       -4.43564
H         -6.68659        1.80219       -2.95512
H         -5.74018        3.30091       -2.95039
H         -0.54878        2.02706       -0.50681
H         -0.17326        2.82925        0.99922
H          1.09363       -0.00755       -0.74554
H          1.48795        1.24780       -1.91383
H          2.77149       -1.67089       -1.34493
H          3.28482       -0.70568       -2.73236
H          4.60868       -3.26130       -1.62271
H          5.07052       -2.37401       -3.07073
H          7.30943       -1.82286       -1.94422
H          6.50295       -4.52503       -0.77615
H          8.18595       -3.81680       -0.87632
H          4.27405       -0.30070        0.57795
H          2.85652        3.08135       -0.88764
H          1.21071        3.66834       -0.92130
H          1.44937        4.15707        1.57899
H          3.71767        4.29614        2.52426
H          3.41506        2.63722        2.07531
H          4.41263        3.64987        1.05164
H          1.63881        5.94330       -0.11555
H          2.75648        6.22422        1.20375
H          3.34995        5.59461       -0.31842
