59
final
C          7.37187       -4.75723        0.25301
C          6.05467       -4.85166        0.67160
C          5.15701       -3.83813        0.37758
C          5.56007       -2.71654       -0.33824
C          6.88448       -2.63209       -0.75307
C          7.78455       -3.64373       -0.46073
C          4.58655       -1.59478       -0.62941
C          4.60575       -0.54569        0.48589
N          3.65744        0.54599        0.22352
C          2.33015        0.40510        0.65306
O          1.97967       -0.52279        1.29486
C          1.52180        1.59757        0.22907
C          0.20321        1.78287        0.34667
C         -0.58938        2.99771        0.09149
C         -0.26599        4.26741       -0.36244
C         -1.26010        5.22890       -0.47144
C         -2.56571        4.92240       -0.12646
C         -2.91219        3.66042        0.33765
C         -1.91473        2.71616        0.44087
N         -2.01697        1.40831        0.90383
C         -0.82366        0.73787        0.76755
O         -0.70525       -0.43363        0.91130
C         -3.23030        0.68003        1.13224
C         -3.83904        0.13623       -0.16100
O         -3.48120        0.51693       -1.23832
N         -4.83728       -0.75363        0.02788
C         -5.47360       -1.43355       -1.09118
C         -6.77942       -2.06385       -0.66114
C         -7.85840       -1.26528       -0.28976
C         -9.05365       -1.83480        0.10734
C         -9.19005       -3.21621        0.13934
C         -8.12515       -4.01794       -0.22762
C         -6.92561       -3.44223       -0.62457
S          2.62731        2.78552       -0.46564
C          4.00375        1.70080       -0.37548
S          5.47025        2.14167       -0.96179
H          8.06902       -5.54450        0.47821
H          5.72467       -5.71389        1.22341
H          4.13427       -3.92113        0.70331
H          7.21242       -1.77174       -1.31089
H          8.80453       -3.56339       -0.79238
H          4.83848       -1.11624       -1.56915
H          3.58146       -1.99098       -0.72344
H          4.31953       -0.98623        1.42747
H          5.58497       -0.10785        0.58731
H          0.73452        4.53082       -0.63950
H         -1.01322        6.21087       -0.82956
H         -3.33006        5.67254       -0.22059
H         -3.93040        3.43323        0.58913
H         -3.00695       -0.13381        1.80748
H         -3.95397        1.32190        1.62010
H         -4.94981       -1.16240        0.92862
H         -5.63734       -0.69882       -1.86657
H         -4.81099       -2.18809       -1.50126
H         -7.75792       -0.19414       -0.31619
H         -9.87984       -1.20591        0.38753
H        -10.12037       -3.65952        0.44630
H         -8.22249       -5.08863       -0.20661
H         -6.10205       -4.07358       -0.90956
