67
final
C         -2.14037        2.62566       -0.91402
C         -2.54812        1.74772        0.26190
H         -2.18098        2.19000        1.17943
C         -2.05814        0.27313        0.09534
H         -1.59761        0.15753       -0.87845
C         -3.37962       -0.51797        0.10635
H         -3.61354       -0.89322        1.10121
N         -4.31951        0.45975       -0.35774
N         -4.00025        1.64698        0.34933
C         -5.72165        0.19778       -0.39448
C         -6.51850        1.11532       -1.07349
C         -7.88373        0.93252       -1.13368
C         -8.47282       -0.17312       -0.53075
C         -7.68115       -1.08517        0.13598
C         -6.30532       -0.89933        0.21488
Cl        -3.30629       -1.96288       -0.94506
C         -1.06518       -0.18006        1.15859
H         -1.53423       -0.24656        2.13143
C          0.28255        0.52746        1.23976
H          0.65892        0.56232        0.22211
C          1.13708       -0.47558        1.99795
H          0.71322       -0.66529        2.98274
C          0.98205       -1.67146        1.09479
H          1.23041       -2.63591        1.51086
N         -0.52726       -1.60749        0.84208
H         -1.03514       -2.30595        1.35991
H         -0.62852       -1.84596       -0.14521
C          1.65529       -1.44177       -0.30604
O          2.66551       -0.72844       -0.27891
O          1.03966       -1.93214       -1.22899
C          2.42890        0.25698        2.21913
O          3.49184       -0.14336        2.56332
N          2.13152        1.59857        2.02684
C          0.78705        1.86680        1.72820
O          0.29022        2.93861        1.74186
C          3.18610        2.59160        2.01235
C          3.92343        2.61346        0.66960
N          4.58076        1.31849        0.31074
H          5.14409        0.98643        1.07971
H          3.89029        0.57981        0.15744
C          5.43309        1.39674       -0.93473
C          6.30311        0.17590       -1.07493
C          5.78562       -1.00740       -1.59172
C          6.59804       -2.12170       -1.70871
C          7.92650       -2.06068       -1.31591
C          8.44684       -0.88359       -0.80339
C          7.63586        0.23253       -0.68440
H         -2.56075        2.24132       -1.83580
H         -2.50703        3.63255       -0.76221
H         -1.06007        2.66847       -1.01528
H         -4.28690        1.54016        1.31016
H         -6.05506        1.96309       -1.54089
H         -8.49177        1.64638       -1.65896
H         -9.53604       -0.31788       -0.58779
H         -8.12361       -1.94651        0.60256
H         -5.71447       -1.62888        0.73595
H          2.74272        3.56351        2.17125
H          3.86605        2.38887        2.82751
H          3.24538        2.85411       -0.13765
H          4.69800        3.36750        0.70130
H          4.74379        1.50789       -1.75931
H          6.02807        2.29472       -0.85218
H          4.75380       -1.06357       -1.88742
H          6.19600       -3.03338       -2.11052
H          8.55521       -2.92672       -1.41385
H          9.47786       -0.83153       -0.50569
H          8.04976        1.14972       -0.30066
