60
final
C          0.00568       -1.18983       -1.78938
C          0.28335       -1.57710       -0.48505
C          0.94830       -0.72187        0.37373
C          1.38660        0.53147       -0.06111
C          1.09330        0.91947       -1.36663
C          0.40488        0.06511       -2.21676
N          2.07224        1.36658        0.83894
C          3.28438        0.93065        1.56701
H          2.99391        0.60116        2.56482
N          4.02745        2.17855        1.58722
N          3.08273        3.22373        1.68354
C          2.13543        2.81063        0.68126
H          2.51310        3.11986       -0.28450
S          0.53567        3.67528        0.81146
C         -0.20858        2.91699        2.29172
C         -1.66876        2.56042        2.09700
O         -2.54021        2.97358        2.78156
N         -1.90700        1.65945        1.05714
N         -3.13508        1.27751        0.81148
C         -3.38510        0.47800       -0.14317
C         -4.77087        0.12523       -0.32489
C         -5.32778       -0.70426       -1.25786
C         -4.76822       -1.48067       -2.33068
C         -5.59610       -2.21418       -3.09405
C         -7.01575       -2.21826       -2.83751
C         -7.60104       -1.50741       -1.84160
C         -6.74577       -0.72837       -1.02633
N         -7.04806        0.04571       -0.00353
H         -7.96843        0.19268        0.34822
C         -5.86337        0.66746        0.55298
C          4.10220       -0.16799        0.92059
C          4.79357        0.05500       -0.26891
C          5.54968       -0.94762       -0.84591
C          5.63288       -2.19556       -0.24646
C          4.94696       -2.40116        0.93199
C          4.18897       -1.40635        1.52690
N          5.01138       -3.70878        1.57463
O          5.69372       -4.54204        1.06524
O          4.36890       -3.86612        2.56977
H         -0.49048       -1.86410       -2.46438
H         -0.01622       -2.54804       -0.13331
H          1.14265       -1.02947        1.38429
H          1.40954        1.87527       -1.73669
H          0.20742        0.38087       -3.22555
H          4.71578        2.24797        2.30873
H          2.63200        3.20671        2.58492
H          0.34254        2.01343        2.52338
H         -0.16590        3.59201        3.13169
H         -1.15741        1.36392        0.46159
H         -2.62745        0.07033       -0.79267
H         -3.70969       -1.46841       -2.50967
H         -5.22062       -2.80798       -3.90486
H         -7.63704       -2.82047       -3.47523
H         -8.66073       -1.52957       -1.67393
H         -5.71441        0.38738        1.58871
H         -5.91570        1.74796        0.49667
H          4.74917        1.02344       -0.72930
H          6.08171       -0.76172       -1.76005
H          6.21452       -2.98574       -0.67619
H          3.68428       -1.61368        2.44952
