64
final
C         -2.62526       -2.25687       -3.49457
C         -2.55814       -0.78542       -3.79991
C         -1.86792        0.16935       -3.19915
C         -0.95649        0.00255       -2.00391
H         -0.89978       -1.03862       -1.74901
C          0.45638        0.48190       -2.37127
O          0.65027        1.46796       -3.01980
N          1.46844       -0.32724       -1.95162
C          2.82500       -0.12655       -2.34998
S          3.88649        0.63641       -1.10839
O          5.21969        0.46461       -1.61966
O          3.37924        1.94411       -0.80914
C          3.70187       -0.36689        0.33528
C          4.46774       -1.51485        0.47607
C          4.31235       -2.30029        1.60411
C          3.40865       -1.94794        2.60200
C          2.65847       -0.78543        2.44494
C          2.80043        0.00952        1.32166
C          3.26850       -2.78646        3.85005
N         -1.45377        0.71249       -0.81293
C         -1.55117        2.18432       -0.88385
C         -0.71943        2.85168        0.16042
C          0.47182        3.46241        0.11185
C          0.75709        3.88113        1.46144
C         -0.28902        3.48731        2.20367
O         -1.19359        2.85910        1.42772
C         -0.62714        3.61883        3.64882
C         -2.35975        0.08617        0.00700
O         -3.30686        0.66525        0.47885
C         -2.13656       -1.35258        0.36522
C         -0.86194       -1.85819        0.63756
C         -0.69985       -3.17096        1.01778
C         -1.80796       -4.00545        1.13272
C         -3.07108       -3.51092        0.90090
C         -3.24189       -2.17105        0.54080
O         -4.51830       -1.77211        0.36628
O         -4.14286       -4.31385        1.03568
H         -2.00102       -2.56169       -2.66539
H         -3.64670       -2.54193       -3.25963
H         -2.32800       -2.83132       -4.36752
H         -3.16825       -0.48212       -4.63579
H         -1.94274        1.16978       -3.58384
H          1.24747       -1.15325       -1.44512
H          3.29638       -1.06414       -2.61055
H          2.86514        0.54546       -3.19465
H          5.18818       -1.77674       -0.27598
H          4.90926       -3.18799        1.71437
H          1.96196       -0.49316        3.21052
H          2.23406        0.91526        1.21425
H          3.87743       -2.37856        4.65168
H          2.24146       -2.80693        4.19619
H          3.58958       -3.80705        3.67876
H         -1.18829        2.50266       -1.84595
H         -2.58531        2.47741       -0.78681
H          1.09266        3.58303       -0.75085
H          1.62415        4.40575        1.80655
H         -1.54142        4.18835        3.78186
H         -0.77808        2.64464        4.10343
H          0.17360        4.12507        4.17333
H         -0.01610       -1.19909        0.58396
H          0.28045       -3.55173        1.23920
H         -1.70477       -5.03405        1.42467
H         -4.56653       -0.82207        0.45491
H         -4.93414       -3.80447        0.90444
