59
final
C         -5.41604        5.73741       -0.27100
C         -4.50848        4.52997       -0.30778
C         -3.32478        4.50168        0.41622
C         -2.48369        3.40608        0.36683
C         -2.80538        2.31453       -0.42663
C         -3.98624        2.31517       -1.16816
C         -4.81857        3.42399       -1.08548
C         -4.36860        1.14321       -2.04294
N         -1.97942        1.15774       -0.47198
C         -0.62488        1.14562       -0.45466
O          0.04066        2.14652       -0.38191
C          0.03177       -0.19560       -0.54721
C          1.34046       -0.26316       -0.30478
N          2.07460       -1.46228       -0.44817
C          3.35473       -1.45519        0.07192
O          4.08588       -2.39784        0.10780
C          3.74326       -0.10183        0.61888
H          3.83860       -0.20748        1.69193
S          2.38977        1.04766        0.25024
C          5.09296        0.32457        0.04268
C          5.62119        1.57182        0.70897
O          5.10612        2.10780        1.63695
O          6.73586        1.98300        0.13950
C          7.34487        3.14951        0.67508
C          1.50745       -2.53950       -1.15830
C          0.18871       -2.51723       -1.41742
C         -0.75613       -1.42919       -0.95146
H         -1.37261       -1.15859       -1.80391
C         -1.70436       -1.94917        0.13721
C         -2.94651       -2.46128       -0.21906
C         -3.81297       -2.97945        0.73178
C         -3.41865       -2.97842        2.04939
C         -2.19397       -2.47992        2.44325
C         -1.34296       -1.96881        1.48119
F         -4.24005       -3.46754        2.97149
C         -0.36600       -3.59317       -2.17733
N         -0.80385       -4.45174       -2.78503
N          2.36066       -3.48794       -1.62002
H         -5.08231        6.49696       -0.97297
H         -6.43479        5.47409       -0.53240
H         -5.43008        6.18860        0.71525
H         -3.05414        5.33989        1.03453
H         -1.57378        3.40143        0.93090
H         -5.73271        3.42335       -1.65420
H         -4.60684        0.25905       -1.45578
H         -5.24319        1.37884       -2.63620
H         -3.56501        0.87923       -2.72313
H         -2.45200        0.28587       -0.41988
H          5.81652       -0.46906        0.19254
H          5.02813        0.50099       -1.02477
H          8.22449        3.32070        0.07576
H          6.67060        3.99010        0.60538
H          7.61710        2.99069        1.70810
H         -3.24389       -2.47178       -1.25297
H         -4.77179       -3.37911        0.46062
H         -1.92446       -2.49388        3.48254
H         -0.39107       -1.57519        1.78675
H          3.21459       -3.62854       -1.12974
H          1.93864       -4.30101       -2.01077
