final
 OpenBabel08032314583D

 50 53  0  0  1  0  0  0  0  0999 V2000
    7.8420    1.4325   -0.9054 C   0  0  0  0  0  0  0  0  0  0  0  0
    6.4787    1.7414   -1.2585 C   0  0  0  0  0  0  0  0  0  0  0  0
    5.7190    1.3059   -0.2419 C   0  0  0  0  0  0  0  0  0  0  0  0
    6.5002    0.7500    0.7086 O   0  0  0  0  0  0  0  0  0  0  0  0
    7.7780    0.8373    0.2901 C   0  0  0  0  0  0  0  0  0  0  0  0
    4.2481    1.3234    0.0150 C   0  0  0  0  0  0  0  0  0  0  0  0
    3.6697   -0.0887    0.1438 C   0  0  0  0  0  0  0  0  0  0  0  0
    2.1661   -0.0609    0.3824 C   0  0  0  0  0  0  0  0  0  0  0  0
    1.5607    0.9791    0.3399 O   0  0  0  0  0  0  0  0  0  0  0  0
    1.5472   -1.2409    0.6624 N   0  0  0  0  0  0  0  0  0  0  0  0
    2.1184   -2.5618    0.4540 C   0  0  0  0  0  0  0  0  0  0  0  0
    1.5069   -3.2191   -0.7853 C   0  0  0  0  0  0  0  0  0  0  0  0
   -0.0236   -3.2218   -0.7170 C   0  0  0  0  0  0  0  0  0  0  0  0
   -0.5801   -1.8263   -0.4186 C   0  0  2  0  0  0  0  0  0  0  0  0
   -0.3356   -1.1817   -1.2559 H   0  0  0  0  0  0  0  0  0  0  0  0
    0.1023   -1.2569    0.8344 C   0  0  0  0  0  0  0  0  0  0  0  0
   -2.0196   -1.9037   -0.3181 N   0  0  0  0  0  0  0  0  0  0  0  0
   -2.8492   -0.7803   -0.2726 C   0  0  1  0  0  0  0  0  0  0  0  0
   -2.4225    0.4996   -0.6249 C   0  0  0  0  0  0  0  0  0  0  0  0
   -3.3173    1.5565   -0.6148 C   0  0  0  0  0  0  0  0  0  0  0  0
   -4.6339    1.3784   -0.2481 C   0  0  1  0  0  0  0  0  0  0  0  0
   -5.0583    0.1089    0.1231 C   0  0  2  0  0  0  0  0  0  0  0  0
   -4.1786   -0.9553    0.1041 C   0  0  0  0  0  0  0  0  0  0  0  0
   -6.3419   -0.1275    0.4915 O   0  0  0  0  0  0  0  0  0  0  0  0
   -7.0992    1.0214    0.7836 C   0  0  0  0  0  0  0  0  0  0  0  0
   -6.8401    2.0908   -0.2572 C   0  0  0  0  0  0  0  0  0  0  0  0
   -5.4848    2.4471   -0.2387 O   0  0  0  0  0  0  0  0  0  0  0  0
    8.7262    1.6351   -1.4737 H   0  0  0  0  0  0  0  0  0  0  0  0
    6.1314    2.2261   -2.1477 H   0  0  0  0  0  0  0  0  0  0  0  0
    8.5174    0.4365    0.9485 H   0  0  0  0  0  0  0  0  0  0  0  0
    4.0407    1.8807    0.9216 H   0  0  0  0  0  0  0  0  0  0  0  0
    3.7594    1.8512   -0.7924 H   0  0  0  0  0  0  0  0  0  0  0  0
    3.8779   -0.6513   -0.7623 H   0  0  0  0  0  0  0  0  0  0  0  0
    4.1600   -0.6143    0.9552 H   0  0  0  0  0  0  0  0  0  0  0  0
    3.1913   -2.5050    0.3661 H   0  0  0  0  0  0  0  0  0  0  0  0
    1.9050   -3.1644    1.3333 H   0  0  0  0  0  0  0  0  0  0  0  0
    1.8318   -2.6747   -1.6689 H   0  0  0  0  0  0  0  0  0  0  0  0
    1.8788   -4.2353   -0.8823 H   0  0  0  0  0  0  0  0  0  0  0  0
   -0.4479   -3.5910   -1.6442 H   0  0  0  0  0  0  0  0  0  0  0  0
   -0.3433   -3.9041    0.0712 H   0  0  0  0  0  0  0  0  0  0  0  0
   -0.1350   -1.8882    1.6886 H   0  0  0  0  0  0  0  0  0  0  0  0
   -0.2351   -0.2591    1.0514 H   0  0  0  0  0  0  0  0  0  0  0  0
   -2.3403   -2.6491    0.2610 H   0  0  0  0  0  0  0  0  0  0  0  0
   -1.4031    0.6912   -0.8973 H   0  0  0  0  0  0  0  0  0  0  0  0
   -2.9918    2.5432   -0.8890 H   0  0  0  0  0  0  0  0  0  0  0  0
   -4.5516   -1.9253    0.3803 H   0  0  0  0  0  0  0  0  0  0  0  0
   -8.1363    0.7160    0.7880 H   0  0  0  0  0  0  0  0  0  0  0  0
   -6.8347    1.3939    1.7685 H   0  0  0  0  0  0  0  0  0  0  0  0
   -7.1159    1.7229   -1.2419 H   0  0  0  0  0  0  0  0  0  0  0  0
   -7.4056    2.9875   -0.0445 H   0  0  0  0  0  0  0  0  0  0  0  0
  1  2  5  0  0  0  0
  1  5  2  0  0  0  0
  1 28  1  0  0  0  0
  2  3  2  0  0  0  0
  2 29  1  0  0  0  0
  3  6  1  0  0  0  0
  4  3  1  0  0  0  0
  4  5  1  0  0  0  0
  5 30  1  0  0  0  0
  6  7  1  0  0  0  0
  6 31  1  0  0  0  0
  6 32  1  0  0  0  0
  7 33  1  0  0  0  0
  7 34  1  0  0  0  0
  8  7  1  0  0  0  0
  9  8  2  0  0  0  0
 10  8  1  0  0  0  0
 10 11  1  0  0  0  0
 10 16  1  0  0  0  0
 11 12  1  0  0  0  0
 11 35  1  0  0  0  0
 11 36  1  0  0  0  0
 12 13  1  0  0  0  0
 12 37  1  0  0  0  0
 12 38  1  0  0  0  0
 13 14  1  0  0  0  0
 13 39  1  0  0  0  0
 13 40  1  0  0  0  0
 14 15  1  6  0  0  0
 14 16  1  0  0  0  0
 16 41  1  0  0  0  0
 16 42  1  0  0  0  0
 17 14  1  0  0  0  0
 17 43  1  0  0  0  0
 18 17  1  6  0  0  0
 18 19  5  0  0  0  0
 18 23  5  0  0  0  0
 19 20  5  0  0  0  0
 19 44  1  0  0  0  0
 20 45  1  0  0  0  0
 21 20  5  1  0  0  0
 21 22  5  0  0  0  0
 22 23  5  6  0  0  0
 23 46  1  0  0  0  0
 24 22  1  0  0  0  0
 24 25  1  0  0  0  0
 25 26  1  0  0  0  0
 25 47  1  0  0  0  0
 25 48  1  0  0  0  0
 26 49  1  0  0  0  0
 26 50  1  0  0  0  0
 27 21  1  0  0  0  0
 27 26  1  0  0  0  0
M  END
