63
final
C         -5.04630        2.12476        0.92581
C         -5.46411        0.72145        0.49572
H         -5.86462        0.19753        1.35619
C         -6.57697        0.76508       -0.59980
O         -6.30271        0.18409       -1.65871
O         -7.58821        1.37336       -0.27018
N         -4.34399       -0.04378       -0.03705
C         -3.44932       -0.69858        0.67888
O         -3.31612       -0.61628        1.88659
C         -2.50866       -1.63651       -0.09552
H         -2.35777       -1.28194       -1.10585
C         -3.06740       -3.08054       -0.13190
C         -4.36181       -3.17416       -0.95013
C         -2.03273       -4.06583       -0.68463
N         -1.23427       -1.56396        0.60025
C         -0.05060       -1.36498        0.00407
O          0.13201       -1.43679       -1.18472
C          1.07838       -1.02965        0.98653
H          1.02066       -1.72064        1.81494
C          0.96855        0.41880        1.51981
C          1.56723        1.37904        0.53148
C          1.37693        2.80614        0.39891
C          0.62871        3.75614        1.09704
C          0.66163        5.06877        0.68252
C          1.43321        5.45432       -0.42187
C          2.18201        4.53738       -1.12569
C          2.14216        3.21281       -0.70150
N          2.78274        2.10360       -1.19990
H          3.26974        2.07109       -2.06337
C          2.41266        1.01085       -0.44939
C          2.84041       -0.40224       -0.72388
H          2.39457       -0.74501       -1.64918
N          2.37722       -1.23671        0.38145
C          3.38251       -1.87235        1.04363
O          3.27862       -2.54047        2.03493
C          4.62791       -1.55380        0.30022
C          4.33190       -0.67301       -0.71794
C          5.33416       -0.22908       -1.56381
C          6.62760       -0.67389       -1.33947
C          6.92054       -1.55327       -0.29984
C          5.91378       -2.00571        0.53414
H         -4.63055        2.67129        0.08330
H         -5.91567        2.66041        1.28392
H         -4.29832        2.08378        1.71164
H         -4.48505       -0.25153       -1.00673
H         -3.28693       -3.35820        0.89698
H         -4.18251       -2.90755       -1.98869
H         -4.73478       -4.19423       -0.93456
H         -5.14782       -2.52793       -0.58354
H         -1.13774       -4.09725       -0.07578
H         -2.45170       -5.06815       -0.71143
H         -1.73872       -3.79745       -1.69466
H         -1.33164       -1.38794        1.57733
H         -0.06853        0.66802        1.71704
H          1.49119        0.47415        2.47134
H          0.02631        3.46691        1.93979
H          0.08310        5.80895        1.20554
H          1.43679        6.48564       -0.72782
H          2.77184        4.83535       -1.97505
H          5.13136        0.44020       -2.38089
H          7.42091       -0.33598       -1.98270
H          7.93361       -1.88176       -0.15186
H          6.10962       -2.68817        1.34052
