final
 OpenBabel08032314583D

 49 52  0  0  1  0  0  0  0  0999 V2000
    4.1897    0.9767    1.1484 C   0  0  0  0  0  0  0  0  0  0  0  0
    4.3202   -0.0823    0.1556 N   0  0  0  0  0  0  0  0  0  0  0  0
    5.6379   -0.6850   -0.0349 C   0  0  2  0  0  0  0  0  0  0  0  0
    5.5295   -1.3773   -0.8492 H   0  0  0  0  0  0  0  0  0  0  0  0
    6.1846   -1.3923    1.2305 C   0  0  0  0  0  0  0  0  0  0  0  0
    7.5652   -0.7563    1.4315 C   0  0  0  0  0  0  0  0  0  0  0  0
    7.4698    0.5126    0.8385 O   0  0  0  0  0  0  0  0  0  0  0  0
    6.7420    0.3449   -0.3479 C   0  0  0  0  0  0  0  0  0  0  0  0
    3.2706   -0.5858   -0.5431 C   0  0  0  0  0  0  0  0  0  0  0  0
    3.3884   -1.4932   -1.3279 O   0  0  0  0  0  0  0  0  0  0  0  0
    1.8994    0.0635   -0.3581 C   0  0  2  0  0  0  0  0  0  0  0  0
    1.8327    0.5604    0.6009 H   0  0  0  0  0  0  0  0  0  0  0  0
    0.7944   -1.0007   -0.4121 C   0  0  0  0  0  0  0  0  0  0  0  0
   -0.5511   -0.3435   -0.4829 C   0  0  1  0  0  0  0  0  0  0  0  0
   -0.7356    0.9174   -0.9286 C   0  0  2  0  0  0  0  0  0  0  0  0
   -2.4249    1.3410   -0.8729 S   0  0  0  0  0  0  0  0  0  0  0  0
   -2.7136   -0.2489   -0.2519 C   0  0  1  0  0  0  0  0  0  0  0  0
   -1.6814   -1.0054   -0.0979 N   0  0  0  0  0  0  0  0  0  0  0  0
   -3.9525   -0.7404    0.0823 N   0  0  0  0  0  0  0  0  0  0  0  0
   -5.1508   -0.0778   -0.0151 C   0  0  0  0  0  0  0  0  0  0  0  0
   -5.2123    1.0472   -0.4159 O   0  0  0  0  0  0  0  0  0  0  0  0
   -6.3675   -0.8620    0.4089 C   0  0  0  0  0  0  0  0  0  0  0  0
   -7.3489   -0.1564    1.3784 C   0  0  0  0  0  0  0  0  0  0  0  0
   -8.5204   -0.7144    0.5442 C   0  0  0  0  0  0  0  0  0  0  0  0
   -7.5294   -0.9468   -0.6149 C   0  0  0  0  0  0  0  0  0  0  0  0
    0.3345    1.7829   -1.4150 C   0  0  0  0  0  0  0  0  0  0  0  0
    0.1599    2.9087   -1.7797 O   0  0  0  0  0  0  0  0  0  0  0  0
    1.7022    1.1199   -1.4635 C   0  0  0  0  0  0  0  0  0  0  0  0
    3.7268    1.8630    0.7339 H   0  0  0  0  0  0  0  0  0  0  0  0
    3.6183    0.6591    2.0141 H   0  0  0  0  0  0  0  0  0  0  0  0
    5.1760    1.2522    1.4864 H   0  0  0  0  0  0  0  0  0  0  0  0
    5.5451   -1.1936    2.0818 H   0  0  0  0  0  0  0  0  0  0  0  0
    6.2357   -2.4669    1.1047 H   0  0  0  0  0  0  0  0  0  0  0  0
    7.8404   -0.6264    2.4687 H   0  0  0  0  0  0  0  0  0  0  0  0
    8.3426   -1.3378    0.9392 H   0  0  0  0  0  0  0  0  0  0  0  0
    7.3950   -0.0386   -1.1293 H   0  0  0  0  0  0  0  0  0  0  0  0
    6.3604    1.3057   -0.6627 H   0  0  0  0  0  0  0  0  0  0  0  0
    0.9376   -1.6390   -1.2758 H   0  0  0  0  0  0  0  0  0  0  0  0
    0.8329   -1.6402    0.4626 H   0  0  0  0  0  0  0  0  0  0  0  0
   -3.9300   -1.6781    0.4184 H   0  0  0  0  0  0  0  0  0  0  0  0
   -6.0962   -1.8467    0.7740 H   0  0  0  0  0  0  0  0  0  0  0  0
   -7.2886   -0.4345    2.4235 H   0  0  0  0  0  0  0  0  0  0  0  0
   -7.2659    0.9187    1.2875 H   0  0  0  0  0  0  0  0  0  0  0  0
   -8.8979   -1.6473    0.9479 H   0  0  0  0  0  0  0  0  0  0  0  0
   -9.3571   -0.0532    0.3575 H   0  0  0  0  0  0  0  0  0  0  0  0
   -7.5005   -0.1050   -1.2945 H   0  0  0  0  0  0  0  0  0  0  0  0
   -7.6146   -1.8647   -1.1835 H   0  0  0  0  0  0  0  0  0  0  0  0
    2.4481    1.9035   -1.4136 H   0  0  0  0  0  0  0  0  0  0  0  0
    1.8000    0.6415   -2.4350 H   0  0  0  0  0  0  0  0  0  0  0  0
  1 29  1  0  0  0  0
  1 30  1  0  0  0  0
  1 31  1  0  0  0  0
  2  1  1  0  0  0  0
  2  3  1  0  0  0  0
  2  9  1  0  0  0  0
  3  4  1  6  0  0  0
  3  5  1  0  0  0  0
  3  8  1  0  0  0  0
  5  6  1  0  0  0  0
  5 32  1  0  0  0  0
  5 33  1  0  0  0  0
  6 34  1  0  0  0  0
  6 35  1  0  0  0  0
  7  6  1  0  0  0  0
  7  8  1  0  0  0  0
  8 36  1  0  0  0  0
  8 37  1  0  0  0  0
  9 11  1  0  0  0  0
 10  9  2  0  0  0  0
 11 12  1  1  0  0  0
 11 13  1  0  0  0  0
 11 28  1  0  0  0  0
 13 38  1  0  0  0  0
 13 39  1  0  0  0  0
 14 13  1  0  0  0  0
 14 15  5  0  0  0  0
 14 18  5  6  0  0  0
 15 16  1  6  0  0  0
 15 26  1  0  0  0  0
 16 17  5  0  0  0  0
 17 19  1  1  0  0  0
 18 17  5  0  0  0  0
 19 20  1  0  0  0  0
 19 40  1  0  0  0  0
 20 22  1  0  0  0  0
 21 20  2  0  0  0  0
 22 23  1  0  0  0  0
 22 25  1  0  0  0  0
 22 41  1  0  0  0  0
 23 24  1  0  0  0  0
 23 42  1  0  0  0  0
 23 43  1  0  0  0  0
 24 25  1  0  0  0  0
 24 44  1  0  0  0  0
 24 45  1  0  0  0  0
 25 46  1  0  0  0  0
 25 47  1  0  0  0  0
 26 28  1  0  0  0  0
 27 26  2  0  0  0  0
 28 48  1  0  0  0  0
 28 49  1  0  0  0  0
M  END
