75
final
C         -6.53102        4.82297        0.10478
C         -5.31698        4.03207        0.59056
C         -4.79574        3.03856       -0.44945
C         -3.57833        2.24918        0.03572
C         -3.08069        1.26951       -1.02524
N         -1.89839        0.49089       -0.62610
C         -2.10953       -0.68403        0.13695
C         -2.35683       -1.86773       -0.49251
N         -2.65445       -3.01912        0.20613
C         -2.64484       -3.03440        1.59369
O         -2.86004       -4.02855        2.22299
N         -2.36590       -1.84389        2.19054
H         -2.34585       -1.85734        3.18841
C         -2.07777       -0.63199        1.57735
O         -1.81216        0.32716        2.24704
C         -2.89726       -4.31380       -0.45153
C         -1.61288       -5.06422       -0.79553
C         -1.90043       -6.40696       -1.47046
C         -0.62622       -7.18361       -1.79924
N         -2.28151       -1.96257       -1.84272
C         -0.67716        1.11428       -0.73349
O         -0.58728        2.19765       -1.24496
C          0.57830        0.39695       -0.25647
C          1.45683        0.03262       -1.46568
C          2.77990       -0.57187       -0.99981
N          3.47735        0.32133       -0.08638
C          2.69870        0.67301        1.09465
C          1.35898        1.30141        0.70826
C          4.56257        1.00479       -0.54413
O          4.95092        0.90698       -1.67946
C          5.32996        1.85542        0.43733
C          5.89505        1.25273        1.55293
C          6.69043        1.97607        2.42493
C          6.90836        3.31987        2.18257
C          6.34255        3.92381        1.07137
C          5.55896        3.20887        0.17404
C          4.98401        3.89782       -1.04399
H         -6.87642        5.51864        0.86332
H         -6.29402        5.39696       -0.78665
H         -7.35863        4.16226       -0.13884
H         -4.51950        4.72134        0.85745
H         -5.57485        3.49680        1.50167
H         -5.59712        2.34987       -0.71694
H         -4.53933        3.57704       -1.36032
H         -2.77233        2.92983        0.28497
H         -3.82566        1.71021        0.94431
H         -3.86307        0.55736       -1.26580
H         -2.83014        1.80566       -1.92877
H         -3.49102       -4.89035        0.23623
H         -3.51124       -4.15164       -1.32818
H         -0.98707       -4.45358       -1.43996
H         -1.05889       -5.22783        0.12375
H         -2.53282       -7.00841       -0.82196
H         -2.46719       -6.24207       -2.38516
H          0.01405       -6.62117       -2.47242
H         -0.05618       -7.39684       -0.90020
H         -0.85891       -8.12978       -2.27638
H         -2.17779       -1.09873       -2.32569
H         -2.77665       -2.67021       -2.32980
H          0.32397       -0.51793        0.26207
H          0.94204       -0.68018       -2.10610
H          1.65164        0.92194       -2.05411
H          2.59322       -1.50703       -0.47530
H          3.42479       -0.77847       -1.83670
H          2.53174       -0.23200        1.67437
H          3.25702        1.35303        1.71574
H          1.53192        2.25959        0.23206
H          0.77163        1.47767        1.60337
H          5.71655        0.20755        1.73447
H          7.12977        1.49559        3.28045
H          7.51693        3.89957        2.85368
H          6.51821        4.97012        0.89371
H          5.45378        3.53378       -1.94887
H          3.91835        3.71900       -1.14145
H          5.13589        4.96868       -0.97984
