68
final
C          5.19931       -2.49951        1.05113
C          3.84524       -2.07908        0.53340
C          3.35611       -0.80380        0.59773
C          2.04349       -0.47727       -0.10137
H          1.48003        0.21173        0.50167
N          1.24979       -1.70604       -0.20507
C         -0.16469       -1.74359       -0.42482
C         -0.56003       -3.01290       -0.67409
S          0.76992       -4.15526       -0.59554
C          1.87278       -2.88619       -0.23190
N          3.13937       -3.11302        0.01348
C         -0.92506       -0.54609       -0.33054
C         -2.32375       -0.53625       -0.49496
N         -2.92996        0.72976       -0.38594
C         -4.35811        0.81675       -0.22109
C         -4.83813        0.44996        1.18588
N         -6.28915        0.53211        1.31779
C         -6.72647        0.74690        2.68281
C         -8.23539        0.92971        2.71515
O         -8.89529       -0.16719        2.14854
C         -8.47432       -0.41573        0.83325
C         -6.97162       -0.62661        0.76589
O         -3.05215       -1.49839       -0.72564
C          2.25594        0.15916       -1.47944
C          1.82721        1.45055       -1.74058
C          2.04509        2.05150       -2.97178
C          2.69774        1.34094       -3.95591
C          3.13163        0.04682       -3.73015
C          2.91119       -0.53231       -2.49465
Cl         2.98318        2.08600       -5.51656
C          4.07563        0.26252        1.27699
O          5.14620        0.16965        1.81741
O          3.39319        1.41748        1.25505
C          3.87188        2.62216        1.87121
C          5.17333        3.08664        1.21662
C          2.75698        3.62563        1.58066
C          4.02329        2.43731        3.38170
H          5.24344       -2.40217        2.12899
H          5.35779       -3.53307        0.77639
H          5.98959       -1.87921        0.65137
H         -1.55748       -3.32796       -0.87046
H         -0.42364        0.39021       -0.20160
H         -2.40144        1.40464        0.12093
H         -4.67846        1.83121       -0.44321
H         -4.80567        0.16457       -0.95383
H         -4.46492       -0.53950        1.44527
H         -4.40081        1.15408        1.88893
H         -6.45148       -0.08680        3.33731
H         -6.25214        1.64165        3.07374
H         -8.59121        1.01635        3.73482
H         -8.49942        1.83989        2.17791
H         -9.00201       -1.30073        0.50038
H         -8.75601        0.41809        0.19175
H         -6.67388       -0.77202       -0.26416
H         -6.71153       -1.53794        1.31178
H          1.31193        2.00280       -0.97737
H          1.70438        3.05208       -3.16089
H          3.63476       -0.49730       -4.50710
H          3.25759       -1.53446       -2.32245
H          5.04648        3.14375        0.14036
H          5.43124        4.07753        1.58034
H          5.98709        2.41197        1.43449
H          1.81641        3.27828        1.99402
H          2.99087        4.59033        2.01983
H          2.63270        3.75625        0.51193
H          4.82056        1.74913        3.61706
H          4.23756        3.39572        3.84650
H          3.09855        2.05705        3.80418
