60
final
C        -10.20166        4.26854       -0.61041
O         -8.88664        4.12109       -0.14901
C         -8.33429        2.89939       -0.07823
C         -7.02529        2.85021        0.40154
C         -6.36756        1.64874        0.50792
C         -6.98638        0.44696        0.14125
C         -8.29734        0.51731       -0.31374
C         -8.97289        1.72160       -0.43511
C         -6.35574       -0.87578        0.22000
C         -5.08542       -1.24570        0.31815
S         -3.61459       -0.27027        0.36220
C         -2.67113       -1.78262        0.41493
N         -3.32581       -2.88053        0.41796
C         -4.69495       -2.70092        0.36332
O         -5.49311       -3.58427        0.34847
N         -1.33270       -1.72839        0.42987
C         -0.55390       -2.95469        0.59373
C          0.63380       -2.95393       -0.35488
N          1.40623       -1.72269       -0.19623
C          0.62760       -0.50868       -0.36347
C         -0.56055       -0.50982        0.59175
C          2.74540       -1.76981       -0.20157
N          3.40530       -2.86433       -0.21800
C          4.77438       -2.67832       -0.18069
O          5.57711       -3.55733       -0.18171
C          5.15797       -1.22103       -0.14773
C          6.42750       -0.83784       -0.16993
C          7.03689        0.49837       -0.16625
C          8.34643        0.62723       -0.64590
C          8.98244        1.84393       -0.68531
C          8.33137        2.98711       -0.22354
C          7.04255        2.88122        0.27825
C          6.41139        1.64635        0.30190
O          9.03103        4.13112       -0.29671
C          8.46188        5.33035        0.15094
S          3.68172       -0.25255       -0.14963
H        -10.41475        5.32594       -0.57590
H        -10.30332        3.91659       -1.63115
H        -10.90426        3.74143        0.02565
H         -6.55090        3.76933        0.69005
H         -5.37113        1.65022        0.90589
H         -8.80809       -0.38847       -0.58878
H         -9.98144        1.72172       -0.79916
H         -7.03264       -1.71152        0.17094
H         -0.20649       -3.01827        1.62135
H         -1.19305       -3.79703        0.39337
H          1.27729       -3.79195       -0.15028
H          0.28702       -3.02484       -1.38224
H          1.23190        0.36195       -0.15958
H          0.27103       -0.44044       -1.38780
H         -1.16910        0.35696        0.38430
H         -0.20433       -0.43622        1.61585
H          7.11759       -1.66270       -0.22164
H          8.86577       -0.24585       -0.99942
H          9.98345        1.93826       -1.06211
H          6.52223        3.73854        0.65788
H          5.42579        1.59518        0.72391
H          9.20564        6.09496       -0.01308
H          7.56697        5.57627       -0.41030
H          8.22438        5.28424        1.20819
