68
final
C          9.72284        4.65893       -1.07855
C          8.77623        3.60587       -0.55498
C          8.79981        3.24470        0.79258
C          7.94653        2.28110        1.28319
C          7.02486        1.65308        0.44441
C          7.00005        2.00880       -0.89722
C          7.86923        2.97038       -1.38966
C          6.13741        0.60575        1.03395
O          6.38770        0.12280        2.10332
C          4.91985        0.17517        0.28238
C          4.24788       -0.90116        0.67069
C          3.00835       -1.40205        0.07252
C          2.03270       -0.68306       -0.52573
N          1.01164       -1.50579       -0.95902
C          1.33657       -2.80707       -0.62089
C          2.57279       -2.78471        0.02909
C          3.14068       -3.98472        0.46617
C          2.45704       -5.15917        0.25623
C          1.21588       -5.16188       -0.39616
C          0.63935       -3.99465       -0.84278
C         -0.25787       -1.05315       -1.45157
C         -1.29319       -0.97074       -0.32439
H         -1.43967       -1.96359        0.09440
C         -2.62519       -0.42259       -0.81978
N         -3.51179       -0.16691        0.35659
H         -3.73655       -1.04378        0.80363
H         -2.95596        0.34266        1.03190
C         -4.78729        0.57498        0.06019
C         -5.61790        0.76653        1.32934
C         -6.92394        1.43214        1.01334
C         -7.25608        2.72097        1.25922
N         -8.51494        2.97647        0.80500
H         -8.99385        3.84132        0.90488
C         -9.03690        1.83309        0.25478
C         -8.06785        0.83092        0.36302
C         -8.35963       -0.45290       -0.11626
C         -9.58607       -0.68854       -0.68697
C        -10.54163        0.33645       -0.79131
C        -10.28450        1.60202       -0.32372
O         -0.90024       -0.07938        0.68357
H         10.75512        4.36902       -0.91010
H          9.58944        4.81872       -2.14157
H          9.56458        5.60715       -0.57424
H          9.49859        3.72213        1.45724
H          7.97948        1.99989        2.31828
H          6.32615        1.52847       -1.58196
H          7.83979        3.22141       -2.43509
H          4.60165        0.74722       -0.56860
H          4.63956       -1.45824        1.50369
H          1.96951        0.37542       -0.67855
H          4.09763       -3.99234        0.95550
H          2.87890       -6.09027        0.58688
H          0.70884       -6.09592       -0.55709
H         -0.30365       -4.01541       -1.35993
H         -0.12524       -0.07158       -1.88968
H         -0.60673       -1.71965       -2.23237
H         -2.48675        0.52841       -1.31434
H         -3.13488       -1.10387       -1.48589
H         -4.50349        1.52434       -0.36982
H         -5.32024        0.00149       -0.68400
H         -5.79524       -0.20053        1.79636
H         -5.05730        1.36503        2.04181
H         -6.68534        3.49076        1.73852
H         -7.64539       -1.25447       -0.02966
H         -9.82679       -1.66913       -1.05498
H        -11.49358        0.12227       -1.24142
H        -11.01934        2.38313       -0.39872
H         -0.07472       -0.34889        1.07205
