92
final
C          8.85639        5.70296       -1.89540
C          7.96673        4.49991       -2.20520
C          7.54067        3.73557       -0.95037
C          6.64993        2.53120       -1.26177
C          6.23948        1.78833       -0.00518
O          5.41676        0.69140       -0.40696
C          4.94866       -0.09207        0.54178
O          5.15743        0.04838        1.70223
S          3.97224       -1.37834       -0.18281
C          3.46842       -2.29568        1.32840
H          4.34505       -2.30588        1.95922
C          3.08565       -3.72913        0.94346
C          1.75867       -3.78530        0.17985
C          0.56198       -3.15155        0.93425
C         -0.71852       -3.11419        0.03632
H         -1.14597       -4.11556        0.08735
C         -0.51858       -2.81653       -1.45963
C         -1.81626       -3.08058       -2.22875
C         -3.08594       -2.40532       -1.68098
C         -3.25629       -0.94018       -2.12087
C         -4.29675       -0.33740       -1.15266
H         -5.28277       -0.51772       -1.57410
C         -4.16340       -1.19049        0.14606
C         -3.13488       -2.31673       -0.13209
H         -3.51947       -3.25851        0.25145
C         -1.77130       -2.13101        0.59103
H         -1.96584       -2.39286        1.62724
C         -1.18777       -0.70964        0.63894
C          0.19576       -0.69320        1.22759
C          0.97135       -1.75114        1.38890
C          2.31421       -1.62063        2.07894
C         -4.18860        1.18658       -0.94256
H         -3.24674        1.39018       -0.43428
C         -4.16963        1.92840       -2.28606
C         -5.33415        1.69651       -0.04732
C         -5.15969        3.12296        0.48570
C         -6.30165        3.53754        1.41882
C         -6.13549        4.90904        2.09216
C         -6.12265        6.06486        1.08603
C         -7.23655        5.12635        3.13510
C         -4.29469       -3.21836       -2.18433
C          0.24345       -4.02613        2.17105
H          9.76771        5.39716       -1.38941
H          9.14167        6.22389       -2.80390
H          8.34494        6.41418       -1.25303
H          7.08072        4.83350       -2.74056
H          8.49264        3.82425       -2.87589
H          8.42851        3.40329       -0.41514
H          7.01543        4.41339       -0.27967
H          5.75523        2.85424       -1.78608
H          7.17005        1.84297       -1.92172
H          7.09576        1.40350        0.53202
H          5.67498        2.41897        0.66830
H          3.87011       -4.17872        0.34349
H          3.02921       -4.30950        1.85911
H          1.90477       -3.27133       -0.76120
H          1.52441       -4.81842       -0.06589
H         -0.16575       -1.80093       -1.60911
H          0.23509       -3.46391       -1.88916
H         -1.68866       -2.80557       -3.27378
H         -1.97367       -4.15728       -2.22313
H         -2.31255       -0.41002       -2.04788
H         -3.56938       -0.86987       -3.15825
H         -3.86740       -0.58684        0.99479
H         -5.12384       -1.61909        0.41095
H         -1.16020       -0.23883       -0.33713
H         -1.81917       -0.07321        1.25039
H          0.55757        0.27048        1.55019
H          2.26376       -2.09558        3.05779
H          2.54479       -0.57950        2.25973
H         -5.07865        1.72909       -2.84902
H         -4.09573        3.00142       -2.15025
H         -3.32874        1.62644       -2.89980
H         -6.26875        1.63161       -0.60384
H         -5.44760        1.03269        0.80470
H         -4.21531        3.18920        1.02458
H         -5.09136        3.82213       -0.34026
H         -7.24069        3.52577        0.86608
H         -6.40165        2.78438        2.19819
H         -5.17937        4.90953        2.61454
H         -7.04264        6.08378        0.50634
H         -6.03612        7.01941        1.59682
H         -5.29351        5.99285        0.39092
H         -7.23247        4.33988        3.88403
H         -7.10961        6.07444        3.64947
H         -8.21846        5.13337        2.66813
H         -4.25409       -4.23898       -1.81554
H         -5.24228       -2.79540       -1.86989
H         -4.29903       -3.25992       -3.27049
H          1.05979       -4.05339        2.88174
H         -0.62533       -3.65853        2.70286
H          0.04222       -5.04970        1.86739
