68
final
C          5.65972        1.93766       -3.92900
C          5.18924        1.31011       -2.63886
C          5.72668        1.72259       -1.42031
C          5.32580        1.14315       -0.23360
C          4.36504        0.13913       -0.25507
C          3.82630       -0.29336       -1.45553
C          4.23888        0.29713       -2.63903
S          3.82994       -0.58998        1.26587
O          3.21367       -1.85120        0.95566
O          4.90560       -0.50086        2.21453
C          2.54881        0.52204        1.87811
N          1.37714        0.50613        1.07044
C          0.25996       -0.18956        1.43778
O          0.13043       -0.67140        2.52183
C         -0.78106       -0.36999        0.31937
H         -0.23237       -0.86008       -0.47144
C         -1.28327        0.95173       -0.26263
C         -1.30693        2.10711        0.50265
C         -1.75834        3.31187       -0.01308
C         -2.20177        3.38867       -1.32056
C         -2.17886        2.22703       -2.08714
C         -1.73581        1.01282       -1.58922
C         -1.76482       -0.20680       -2.48324
C         -2.71423        4.68265       -1.90747
N         -1.84375       -1.26753        0.72958
C         -2.92767       -0.76728        1.58422
C         -4.26969       -0.75069        0.92304
C         -5.25535       -1.65225        0.82535
C         -6.30222       -1.01869        0.06511
C         -5.85856        0.21257       -0.22801
O         -4.62676        0.39134        0.28654
C         -6.44531        1.36264       -0.97147
C         -1.68851       -2.63624        0.73557
O         -2.50313       -3.34799        1.23903
C         -0.44583       -3.21260        0.06032
O         -0.50221       -4.58992        0.11339
C          0.65682       -5.21312       -0.34756
H          6.65700        1.58958       -4.18098
H          5.00258        1.68796       -4.75297
H          5.70155        3.01814       -3.84520
H          6.47301        2.49700       -1.40338
H          5.76356        1.44773        0.69840
H          3.11224       -1.09455       -1.46269
H          3.82266       -0.04354       -3.57010
H          2.31250        0.16330        2.86851
H          2.99076        1.50706        1.94667
H          1.39557        0.95879        0.18449
H         -0.97254        2.08099        1.52477
H         -1.76439        4.18609        0.61351
H         -2.52237        2.27215       -3.10675
H         -0.76651       -0.59519       -2.66958
H         -2.35358       -1.00277       -2.04267
H         -2.19923        0.03638       -3.44466
H         -2.25548        4.88675       -2.86957
H         -3.78850        4.63861       -2.06098
H         -2.50781        5.52127       -1.25314
H         -2.97348       -1.38748        2.46423
H         -2.68262        0.23499        1.89683
H         -5.23769       -2.64487        1.22258
H         -7.24815       -1.43660       -0.21316
H         -6.54783        2.23067       -0.32733
H         -5.81414        1.64561       -1.80829
H         -7.42466        1.09949       -1.35141
H         -0.40303       -2.87364       -0.97560
H          0.44348       -2.84320        0.56593
H          1.52780       -4.90874        0.22736
H          0.51161       -6.27817       -0.23692
H          0.83869       -4.98993       -1.39822
