63
final
C         -0.52847       -2.44282       -4.82059
C         -0.93613       -1.76093       -3.53513
C         -0.49480       -2.20978       -2.30336
C         -0.86645       -1.54349       -1.14873
C         -1.68804       -0.42392       -1.16077
C         -2.13653        0.04327       -2.40521
C         -1.75086       -0.63785       -3.55459
C         -2.99883        1.27312       -2.57808
C         -2.05630        0.17820        0.21094
H         -1.40871       -0.30162        0.92717
C         -3.50670       -0.07219        0.62590
C         -4.40039        0.95963        0.69018
N         -4.05226        2.25425        0.49949
C         -2.77398        2.50382        0.39232
N         -1.77544        1.61947        0.31038
C         -0.45717        2.18381        0.30194
C         -0.52615        3.53440        0.29062
S         -2.17751        4.11825        0.36403
C          0.68026        1.33123        0.32470
C          1.99093        1.83735        0.34493
N          3.00423        0.84776        0.37759
C          4.33990        1.21532       -0.01178
C          5.38895        0.30390        0.60022
C          6.51038       -0.07968       -0.12172
C          7.50079       -0.87505        0.43941
C          7.34957       -1.28807        1.74109
C          6.24857       -0.93527        2.49284
C          5.27364       -0.14118        1.91560
F          8.29356       -2.05930        2.29376
O          2.33975        3.01400        0.35536
C         -5.86838        0.79767        1.00719
C         -3.90121       -1.41904        1.01038
O         -5.01213       -1.81379        1.24520
O         -2.85631       -2.25578        1.12142
C         -3.14708       -3.58793        1.49377
C         -1.88329       -4.38539        1.37839
C         -1.38156       -5.12505        2.34663
H         -1.36594       -2.52792       -5.50637
H          0.25310       -1.88432       -5.32970
H         -0.14840       -3.44147       -4.63310
H          0.14555       -3.07351       -2.23734
H         -0.50811       -1.90865       -0.20445
H         -2.10075       -0.27079       -4.50544
H         -2.43660        2.17603       -2.36718
H         -3.35219        1.33896       -3.60125
H         -3.86292        1.26618       -1.92966
H          0.30515        4.19890        0.30200
H          0.54394        0.27179        0.32791
H          2.70948       -0.03629        0.02314
H          4.47351        1.22339       -1.09548
H          4.49315        2.23060        0.32264
H          6.61801        0.24272       -1.14300
H          8.36822       -1.17510       -0.11931
H          6.16468       -1.28161        3.50660
H          4.40320        0.13594        2.47973
H         -6.00881        0.38651        1.99885
H         -6.33148        1.77278        0.94979
H         -6.34919        0.11554        0.31924
H         -3.53713       -3.61289        2.50285
H         -3.90942       -3.98281        0.83479
H         -1.39505       -4.34457        0.41906
H         -1.84191       -5.17645        3.31889
H         -0.48690       -5.70594        2.20829
