62
final
C          3.83053        4.40287        1.28299
C          2.74667        5.14052        0.52901
C          2.76930        6.52591        0.44906
C          1.78481        7.22988       -0.22257
C          0.75672        6.53891       -0.83644
C          0.71611        5.15644       -0.78521
C          1.70155        4.45790       -0.10123
N          1.71410        3.04138       -0.05475
C          0.63472        2.22308       -0.01780
O         -0.50102        2.61969       -0.05989
C          0.92844        0.76023        0.07323
C         -0.09287       -0.13904        0.14566
N          0.03032       -1.50932        0.19934
C         -1.14678       -2.24839        0.27604
O         -1.17351       -3.43334        0.26579
C         -2.36567       -1.36694        0.37832
H         -2.75663       -1.49077        1.38001
S         -1.79168        0.34225        0.18058
C         -3.44372       -1.78920       -0.63413
C         -4.72828       -1.00171       -0.50515
C         -5.10958       -0.04094       -1.43310
C         -6.29671        0.66258       -1.29727
C         -7.12860        0.41062       -0.22034
C         -6.77472       -0.54268        0.72154
C         -5.58986       -1.22122        0.55691
F         -5.24776       -2.13651        1.46767
C          1.26918       -2.23573        0.10899
C          1.91143       -2.64126        1.25990
C          3.09595       -3.35083        1.16459
C          3.64765       -3.66990       -0.06956
C          2.96576       -3.26983       -1.21704
C          1.78302       -2.56316       -1.13292
C          4.96185       -4.43212       -0.15317
C          4.79321       -5.79209       -0.84424
C          6.05868       -3.59597       -0.82697
C          2.31837        0.40048        0.09746
N          3.45059        0.28173        0.11891
H          3.41338        3.73804        2.03290
H          4.45265        3.80119        0.62406
H          4.48424        5.10301        1.78779
H          3.56957        7.06083        0.92961
H          1.82212        8.30366       -0.26303
H         -0.01578        7.06940       -1.36371
H         -0.08035        4.62210       -1.25922
H          2.61113        2.61992        0.01398
H         -3.05399       -1.67733       -1.63917
H         -3.63294       -2.84314       -0.47322
H         -4.46697        0.15840       -2.27182
H         -6.56692        1.40173       -2.02878
H         -8.05036        0.95179       -0.10853
H         -7.39627       -0.76438        1.56858
H          1.49758       -2.39718        2.22128
H          3.59784       -3.65336        2.06605
H          3.36003       -3.50648       -2.18834
H          1.26602       -2.25793       -2.02464
H          5.28146       -4.62451        0.86700
H          4.03588       -6.39180       -0.35051
H          4.50130       -5.67705       -1.88352
H          5.72770       -6.34470       -0.82428
H          6.18333       -2.64081       -0.32897
H          7.00774       -4.12297       -0.79691
H          5.82384       -3.39887       -1.86837
