58
final
C         -2.11890        5.07191        1.67543
C         -2.04031        3.70035        1.04501
C         -1.79814        2.56799        1.80217
C         -1.73156        1.31205        1.21083
C         -1.91457        1.15302       -0.15036
C         -2.16688        2.29159       -0.91293
C         -2.22065        3.54000       -0.32802
C         -1.85445       -0.23245       -0.79629
H         -1.73130       -0.95748       -0.00437
C         -2.99511       -0.54218       -1.75426
C         -2.53972       -0.65452       -3.07993
C         -1.00689       -0.55781       -2.99953
O         -0.20321       -0.65377       -3.87894
N         -0.67598       -0.34861       -1.67910
C          0.60143       -0.38393       -1.20437
N          0.88671       -0.40080        0.04072
N          2.23505       -0.42087        0.28012
C          2.92947       -0.42155       -0.78020
S          2.00387       -0.40974       -2.25618
S          4.69279       -0.45418       -0.81054
C          5.03158       -0.50364        0.98441
C          6.52314       -0.53237        1.21389
C          7.24142        0.64938        1.35394
C          8.60970        0.62483        1.56717
C          9.28023       -0.58526        1.64148
C          8.57425       -1.76891        1.49985
C          7.20604       -1.74087        1.28672
O         -3.06390       -0.83991       -4.15334
C         -4.37884       -0.58617       -1.36889
O         -5.31974       -0.48965       -2.12525
C         -4.72104       -0.77909        0.09996
C         -5.69794        0.02850        0.67650
C         -6.08054       -0.15025        1.99038
C         -5.52306       -1.16209        2.76997
C         -4.57400       -1.98469        2.18602
C         -4.17265       -1.79136        0.86984
C         -5.94559       -1.34463        4.20980
H         -1.41283        5.75883        1.21662
H         -3.11010        5.50306        1.56058
H         -1.89823        5.03055        2.73662
H         -1.65430        2.65675        2.86590
H         -1.52692        0.45128        1.82067
H         -2.33657        2.19363       -1.96977
H         -2.41568        4.40311       -0.94309
H          4.57710        0.36474        1.43664
H          4.55021       -1.37881        1.39400
H          6.72626        1.59218        1.29526
H          9.14989        1.54868        1.67576
H         10.34271       -0.60570        1.80835
H          9.08678       -2.71298        1.55586
H          6.66332       -2.66328        1.17546
H         -6.15420        0.79430        0.07717
H         -6.82837        0.49748        2.41802
H         -4.13937       -2.78785        2.75726
H         -3.44341       -2.45205        0.43667
H         -7.02713       -1.38909        4.30204
H         -5.53916       -2.25971        4.62682
H         -5.60177       -0.51960        4.82876
