78
final
C          6.80680        4.99535       -1.55339
C          6.59306        3.50590       -1.41614
C          7.66183        2.64822       -1.19186
C          7.46197        1.28417       -1.09291
C          6.19666        0.71912       -1.20749
C          5.11334        1.57227       -1.42773
C          5.33112        2.94253       -1.52907
C          3.69263        1.05129       -1.52246
C          3.00467        1.03684       -0.15203
N          1.64203        0.51535       -0.20307
C          1.36020       -0.79034       -0.11202
O          2.20487       -1.63743        0.06646
C         -0.11276       -1.15549       -0.28049
H         -0.34199       -0.99703       -1.33293
C         -1.10919       -0.31255        0.53296
N         -2.28844       -1.16924        0.57825
C         -2.04339       -2.48164        0.00432
C         -0.51144       -2.61443        0.04307
C          0.03990       -3.58821       -1.01257
C         -0.21701       -5.05204       -0.68247
N          0.34496       -5.35240        0.68073
H          0.23186       -6.33223        0.89462
H          1.34064       -5.17743        0.67329
C         -0.29467       -4.51294        1.75460
C         -0.05090       -3.03860        1.45892
C         -3.58072       -0.79755        0.79980
O         -4.47682       -1.56179        0.57439
C         -3.86358        0.60154        1.36903
H         -2.93891        1.12244        1.59407
C         -4.70719        0.50566        2.64466
C         -3.98742       -0.31806        3.71857
C         -5.05033        1.90165        3.17030
O         -4.59220        1.33497        0.41481
C         -3.91927        1.75358       -0.69856
C         -3.13114        2.89391       -0.64650
C         -2.47005        3.32102       -1.78751
C         -2.59803        2.61739       -2.97606
C         -3.39954        1.48743       -3.02072
C         -4.06183        1.04997       -1.88351
C          6.03706       -0.78429       -1.11883
H          7.26397        5.23646       -2.50870
H          5.87006        5.53707       -1.49064
H          7.46227        5.37109       -0.77495
H          8.65751        3.04577       -1.09682
H          8.30939        0.64302       -0.92364
H          4.48759        3.58894       -1.70903
H          3.11821        1.67958       -2.19724
H          3.67217        0.04934       -1.93344
H          3.56209        0.43334        0.54731
H          2.95361        2.04015        0.25122
H          0.91513        1.14613       -0.45627
H         -0.72959       -0.10349        1.52805
H         -1.32130        0.62979        0.04996
H         -2.57271       -3.23377        0.57259
H         -2.41719       -2.53252       -1.01469
H         -0.40864       -3.38793       -1.97940
H          1.10643       -3.43263       -1.11704
H         -1.26873       -5.29927       -0.63875
H          0.26769       -5.71487       -1.38517
H         -1.34093       -4.78210        1.76188
H          0.14494       -4.80731        2.69698
H          1.00198       -2.82824        1.58131
H         -0.58483       -2.47353        2.21393
H         -5.62337       -0.00352        2.36965
H         -3.03279        0.12915        3.98808
H         -4.58889       -0.36287        4.61920
H         -3.81000       -1.34022        3.39942
H         -5.58801        2.48088        2.43203
H         -5.67240        1.82404        4.05564
H         -4.15224        2.44927        3.44792
H         -3.06386        3.44906        0.27191
H         -1.87237        4.21432       -1.75217
H         -2.09565        2.95936       -3.86266
H         -3.52128        0.95104       -3.94472
H         -4.70074        0.18650       -1.90361
H          5.27179       -1.08037       -0.40928
H          5.76526       -1.20942       -2.08169
H          6.96731       -1.24690       -0.81190
