64
final
C          7.18051       -3.49648        1.65329
C          5.89185       -2.90924        1.08067
C          6.07514       -2.43103       -0.36880
C          4.79140       -1.89571       -0.95667
C          4.28091       -0.61429       -0.69680
C          3.06977       -0.31131       -1.29997
N          2.41613       -1.17060       -2.05940
C          2.97069       -2.35500       -2.24263
N          4.12029       -2.74148       -1.71946
C          2.25608       -3.33639       -3.12569
C          2.47682        1.08790       -1.29520
O          3.14500        1.97105       -1.75890
N          1.21563        1.25399       -0.84036
C          0.39682        0.19762       -0.27089
C         -0.41397        0.72823        0.91147
N         -1.18046        1.91720        0.53905
C         -0.27185        2.97856        0.06855
H          0.43396        3.09354        0.88470
C          0.51926        2.50190       -1.14653
C         -0.92779        4.33923       -0.14697
C         -2.41779        1.76066       -0.03975
O         -2.78015        2.34545       -1.02014
C         -3.38797        0.84349        0.65912
C         -3.45748        0.73390        2.04084
C         -4.41946       -0.05842        2.63861
C         -5.33888       -0.75179        1.86817
C         -5.27323       -0.62694        0.48585
C         -4.30961        0.15971       -0.11480
N         -6.21300       -1.29368       -0.41071
O         -5.75741       -1.75138       -1.41522
O         -7.36121       -1.30957       -0.10341
Cl        -6.46297       -1.77888        2.68273
C          5.00471        0.37474        0.15635
O          6.18523        0.51058        0.17855
O          4.17787        1.06950        0.91829
C          4.74495        2.13814        1.67723
C          3.61775        2.81920        2.42174
H          7.03351       -3.83390        2.67432
H          7.51683       -4.34707        1.06799
H          7.97683       -2.75864        1.65733
H          5.10221       -3.65507        1.11343
H          5.56728       -2.08036        1.70382
H          6.84737       -1.67769       -0.41084
H          6.37381       -3.26798       -0.98689
H          2.79771       -3.44096       -4.06039
H          2.22839       -4.31117       -2.65466
H          1.25277       -2.99635       -3.33876
H         -0.27305       -0.20617       -1.02563
H          1.02324       -0.60900        0.07552
H         -1.07007       -0.05276        1.26351
H          0.25245        0.99595        1.72301
H          1.25721        3.23456       -1.42785
H         -0.15313        2.34938       -1.98543
H         -1.57332        4.58496        0.68917
H         -0.14795        5.09232       -0.19753
H         -1.51118        4.38159       -1.05319
H         -2.76387        1.27492        2.65668
H         -4.46382       -0.14791        3.70656
H         -4.28779        0.24604       -1.18248
H          5.48260        1.72996        2.35343
H          5.24363        2.81555        0.99938
H          2.89670        3.23349        1.72732
H          3.10943        2.12067        3.07749
H          4.01411        3.62818        3.02634
