64
final
C         -1.36186        4.32420       -0.29382
C         -1.48580        3.07696       -1.16469
N         -1.66211        1.81725       -0.43326
C         -2.92680        1.57316        0.16157
C         -3.87101        0.85399       -0.49318
N         -5.09661        0.57073        0.07668
C         -5.36537        0.90019        1.39529
O         -6.39760        0.61201        1.92976
N         -4.37923        1.57989        2.03874
H         -4.56369        1.80712        2.99289
C         -3.14502        1.96848        1.53411
O         -2.37701        2.56926        2.22939
C         -6.19823       -0.00453       -0.71168
C         -6.10006       -1.50190       -0.93523
C         -5.89772       -2.37469        0.13072
C         -5.84111       -3.73888       -0.08507
C         -5.99222       -4.25379       -1.36579
C         -6.20258       -3.39536       -2.42842
C         -6.25472       -2.02464       -2.21190
N         -3.69240        0.42138       -1.77526
C         -0.62332        1.01970       -0.00907
O         -0.79759        0.03847        0.64422
C          0.76843        1.42727       -0.47698
O          1.69210        0.54301        0.10109
C          2.96081        0.67568       -0.26739
O          3.34672        1.47108       -1.05208
C          3.78993       -0.34381        0.48070
O          5.10743       -0.23935        0.07313
C          6.03392       -1.05632        0.62410
C          5.77151       -2.01201        1.57909
C          6.80069       -2.80792        2.08736
C          8.08254       -2.63763        1.63261
C          8.35785       -1.67069        0.66344
C          7.35102       -0.87973        0.15477
O          7.51450        0.07438       -0.77758
C          8.79013        0.33894       -1.29959
C          8.64350        1.46001       -2.30828
H         -0.52762        4.25297        0.39341
H         -1.21095        5.19157       -0.92973
H         -2.25415        4.48344        0.29585
H         -2.34190        3.17755       -1.82065
H         -0.62255        2.98931       -1.81087
H         -7.09932        0.22760       -0.16990
H         -6.23390        0.51482       -1.65880
H         -5.79757       -1.98593        1.12729
H         -5.68318       -4.40273        0.74566
H         -5.94757       -5.31549       -1.52889
H         -6.32448       -3.78425       -3.42343
H         -6.42400       -1.36282       -3.04483
H         -2.74486        0.48916       -2.07710
H         -4.10415       -0.45756       -2.00454
H          0.83673        1.37337       -1.55541
H          0.99747        2.44116       -0.18140
H          3.67421       -0.15006        1.54287
H          3.37575       -1.32646        0.27735
H          4.77330       -2.15640        1.94482
H          6.57526       -3.54823        2.83313
H          8.88442       -3.24279        2.01502
H          9.36570       -1.54927        0.31759
H          9.46653        0.62778       -0.49998
H          9.19093       -0.55320       -1.77279
H          9.60876        1.70229       -2.74201
H          7.96826        1.16701       -3.10336
H          8.24321        2.34691       -1.83182
