55
final
C         -7.16119       -1.58006        0.44773
C         -6.92660       -0.52080       -0.41593
C         -5.64716       -0.00978       -0.55614
C         -4.60368       -0.56324        0.17119
C         -4.83531       -1.61927        1.04020
C         -6.11758       -2.12840        1.17564
N         -3.27092       -0.05488        0.01766
C         -2.39688       -0.64192       -0.86236
C         -1.13039       -0.29852       -1.02489
C         -0.56641       -1.15880       -2.07821
O          0.52500       -1.19159       -2.52367
O         -1.55387       -1.97868       -2.50840
C         -2.75023       -1.75235       -1.81109
C         -0.43213        0.75187       -0.21230
C          0.43362        1.70608       -1.00987
C          0.09010        2.60830       -1.98589
C          1.08262        3.40231       -2.55339
C          2.39043        3.27503       -2.12567
C          2.74769        2.36426       -1.13486
C          1.75263        1.58257       -0.58857
N          1.84943        0.60819        0.42061
C          0.61898        0.09856        0.72300
O          0.36758       -0.69070        1.58078
C          3.01338        0.33595        1.24548
C          4.21844       -0.24613        0.52593
C          5.39322        0.49602        0.46362
C          6.53506        0.01226       -0.15053
C          6.52095       -1.24737       -0.72087
C          5.37301       -2.01687       -0.65630
C          4.24207       -1.52160       -0.03091
Cl         2.85481       -2.56670        0.07427
C         -1.50420        1.44126        0.62773
C         -2.79074        1.02902        0.74108
N         -3.72145        1.67998        1.50091
C         -1.11144        2.56038        1.42667
N         -0.82996        3.44622        2.08616
H         -8.15503       -1.97535        0.55373
H         -7.73621       -0.09318       -0.97837
H         -5.45338        0.81591       -1.21591
H         -4.01639       -2.03342        1.60071
H         -6.29774       -2.94811        1.84663
H         -3.04868       -2.65750       -1.29905
H         -3.52996       -1.47079       -2.50713
H         -0.93366        2.70562       -2.30185
H          0.83188        4.11349       -3.31902
H          3.15533        3.89042       -2.56466
H          3.76996        2.27516       -0.82798
H          3.31691        1.25804        1.72889
H          2.67432       -0.34224        2.01367
H          5.41137        1.47530        0.90920
H          7.42424        0.61534       -0.18232
H          7.39676       -1.63726       -1.20702
H          5.34957       -3.00217       -1.08112
H         -3.36087        2.34511        2.14998
H         -4.47836        1.14066        1.85646
