66
final
C          1.81357        3.38774        2.48091
C          2.63536        2.12618        2.20552
C          2.40074        1.06856        3.28765
C          2.35927        1.59344        0.77751
H          2.55252        2.39024        0.07233
C          3.25947        0.39754        0.44174
O          2.81149       -0.72008        0.41602
N          4.54937        0.71745        0.21245
C          5.64093       -0.13265       -0.09670
C          5.59254       -1.50837        0.01932
C          6.71677       -2.28866       -0.28971
C          7.84691       -1.64816       -0.69812
C          7.89033       -0.27163       -0.80958
C          6.81494        0.51446       -0.52247
O          9.12109        0.10509       -1.22013
C          9.82681       -1.08199       -1.51836
O          9.05955       -2.15818       -1.03478
N          0.98722        1.15660        0.59695
C          0.14803        1.85669       -0.21670
O          0.41558        2.93641       -0.66860
N         -1.05917        1.23351       -0.50893
C         -2.00530        1.99615       -1.30618
C         -2.88439        1.05199       -2.10838
N         -3.52859        0.07150       -1.22091
C         -2.58782       -0.65283       -0.36960
C         -1.71255        0.32410        0.40765
C         -4.78173       -0.30944       -1.50989
O         -5.45279        0.13724       -2.39468
C         -5.44028       -1.39112       -0.60367
H         -4.80867       -2.26932       -0.52127
C         -5.82709       -0.88404        0.75529
C         -7.15829       -0.94189        0.90211
C         -8.05408       -0.57020        1.97655
C         -9.36941       -0.70924        1.77698
C         -9.88271       -1.22075        0.51598
C         -9.10246       -1.59619       -0.52346
C         -7.70238       -1.46831       -0.33955
N         -6.72398       -1.76684       -1.15362
H         -6.84403       -1.93595       -2.13047
H          2.08503        3.80751        3.44402
H          1.97656        4.14644        1.72358
H          0.75227        3.16494        2.50375
H          3.68623        2.40616        2.23523
H          1.36217        0.75369        3.30188
H          3.01671        0.18767        3.14384
H          2.63475        1.47766        4.26468
H          4.76754        1.68802        0.21785
H          4.69257       -1.98709        0.33810
H          6.68222       -3.35775       -0.19976
H          6.87033        1.58308       -0.62199
H          9.94614       -1.16937       -2.59035
H         10.78366       -1.06519       -1.02215
H          0.91303        0.16280        0.58821
H         -2.62371        2.62744       -0.66993
H         -1.45886        2.63714       -1.97671
H         -3.65456        1.59922       -2.62489
H         -2.28612        0.52001       -2.84130
H         -3.10915       -1.28465        0.33453
H         -1.95818       -1.28670       -0.98674
H         -0.99556       -0.24511        0.97610
H         -2.33004        0.87501        1.11827
H         -5.11522       -0.53985        1.47934
H         -7.65379       -0.19217        2.89814
H        -10.07603       -0.44496        2.53977
H        -10.94962       -1.30249        0.41472
H         -9.51151       -1.97152       -1.44138
