final
 OpenBabel08082316143D

 61 63  0  0  1  0  0  0  0  0999 V2000
    3.1333   -3.5232    0.8963 C   0  0  0  0  0  0  0  0  0  0  0  0
    4.0749   -2.4972    0.2776 C   0  0  0  0  0  0  0  0  0  0  0  0
    3.4548   -1.1284    0.1982 N   0  0  0  0  0  4  0  0  0  0  0  0
    2.4863   -1.2992   -0.0655 H   0  0  0  0  0  0  0  0  0  0  0  0
    3.4179   -0.4423    1.5428 C   0  0  0  0  0  0  0  0  0  0  0  0
    2.2705    0.5516    1.6587 C   0  0  0  0  0  0  0  0  0  0  0  0
    3.9994   -0.2501   -0.9224 C   0  0  1  0  0  0  0  0  0  0  0  0
    3.7176    0.7558   -0.6527 H   0  0  0  0  0  0  0  0  0  0  0  0
    5.5294   -0.3014   -1.1066 C   0  0  0  0  0  0  0  0  0  0  0  0
    6.3821    0.1962    0.0462 C   0  0  0  0  0  0  0  0  0  0  0  0
    7.2593   -0.6539    0.7052 C   0  0  0  0  0  0  0  0  0  0  0  0
    8.0555   -0.1882    1.7429 C   0  0  0  0  0  0  0  0  0  0  0  0
    7.9855    1.1375    2.1298 C   0  0  0  0  0  0  0  0  0  0  0  0
    7.1251    2.0013    1.4661 C   0  0  0  0  0  0  0  0  0  0  0  0
    6.3357    1.5348    0.4306 C   0  0  0  0  0  0  0  0  0  0  0  0
    3.2821   -0.5989   -2.2439 C   0  0  0  0  0  0  0  0  0  0  0  0
    1.9495   -0.0427   -2.3850 N   0  0  0  0  0  0  0  0  0  0  0  0
    0.8579   -0.6020   -1.8234 C   0  0  1  0  0  0  0  0  0  0  0  0
    0.9771   -1.4896   -1.0011 O   0  0  0  0  0  0  0  0  0  0  0  0
   -0.4748   -0.0583   -2.2062 C   0  0  1  0  0  0  0  0  0  0  0  0
   -0.7328    0.4943   -3.4555 C   0  0  0  0  0  0  0  0  0  0  0  0
   -1.9949    0.9774   -3.7282 C   0  0  0  0  0  0  0  0  0  0  0  0
   -2.9793    0.9367   -2.7554 C   0  0  2  0  0  0  0  0  0  0  0  0
   -2.7383    0.3882   -1.4963 C   0  0  2  0  0  0  0  0  0  0  0  0
   -1.4725   -0.1337   -1.2496 C   0  0  0  0  0  0  0  0  0  0  0  0
   -3.7593    0.3376   -0.5436 N   0  0  0  0  0  0  0  0  0  0  0  0
   -3.5907    0.3414    0.8190 C   0  0  0  0  0  0  0  0  0  0  0  0
   -2.5138    0.3719    1.3460 O   0  0  0  0  0  0  0  0  0  0  0  0
   -4.8388    0.3124    1.6156 C   0  0  0  0  0  0  0  0  0  0  0  0
   -4.8817    0.5883    2.9379 C   0  0  0  0  0  0  0  0  0  0  0  0
   -6.1997    0.5074    3.4831 C   0  0  0  0  0  0  0  0  0  0  0  0
   -7.1163    0.1653    2.5563 C   0  0  0  0  0  0  0  0  0  0  0  0
   -6.4196   -0.0744    1.0037 S   0  0  0  0  0  0  0  0  0  0  0  0
   -4.5439    1.5842   -3.1482 Cl  0  0  0  0  0  0  0  0  0  0  0  0
    2.8988   -3.3098    1.9313 H   0  0  0  0  0  0  0  0  0  0  0  0
    2.2082   -3.5940    0.3376 H   0  0  0  0  0  0  0  0  0  0  0  0
    3.6195   -4.4912    0.8677 H   0  0  0  0  0  0  0  0  0  0  0  0
    4.9935   -2.4039    0.8357 H   0  0  0  0  0  0  0  0  0  0  0  0
    4.3170   -2.8008   -0.7290 H   0  0  0  0  0  0  0  0  0  0  0  0
    3.2996   -1.2187    2.2814 H   0  0  0  0  0  0  0  0  0  0  0  0
    4.3760    0.0237    1.6966 H   0  0  0  0  0  0  0  0  0  0  0  0
    2.3542    1.3743    0.9587 H   0  0  0  0  0  0  0  0  0  0  0  0
    1.3093    0.0720    1.5163 H   0  0  0  0  0  0  0  0  0  0  0  0
    2.2855    0.9745    2.6560 H   0  0  0  0  0  0  0  0  0  0  0  0
    5.8428   -1.2974   -1.3955 H   0  0  0  0  0  0  0  0  0  0  0  0
    5.7287    0.3282   -1.9679 H   0  0  0  0  0  0  0  0  0  0  0  0
    7.3430   -1.6828    0.4002 H   0  0  0  0  0  0  0  0  0  0  0  0
    8.7320   -0.8604    2.2383 H   0  0  0  0  0  0  0  0  0  0  0  0
    8.6028    1.5008    2.9307 H   0  0  0  0  0  0  0  0  0  0  0  0
    7.0795    3.0375    1.7478 H   0  0  0  0  0  0  0  0  0  0  0  0
    5.6906    2.2237   -0.0888 H   0  0  0  0  0  0  0  0  0  0  0  0
    3.8725   -0.2008   -3.0564 H   0  0  0  0  0  0  0  0  0  0  0  0
    3.2355   -1.6714   -2.3851 H   0  0  0  0  0  0  0  0  0  0  0  0
    1.8326    0.7403   -2.9863 H   0  0  0  0  0  0  0  0  0  0  0  0
    0.0136    0.5185   -4.2280 H   0  0  0  0  0  0  0  0  0  0  0  0
   -2.2266    1.3908   -4.6905 H   0  0  0  0  0  0  0  0  0  0  0  0
   -1.2638   -0.5812   -0.3036 H   0  0  0  0  0  0  0  0  0  0  0  0
   -4.6779    0.5003   -0.8889 H   0  0  0  0  0  0  0  0  0  0  0  0
   -4.0058    0.8446    3.5005 H   0  0  0  0  0  0  0  0  0  0  0  0
   -6.4351    0.6957    4.5125 H   0  0  0  0  0  0  0  0  0  0  0  0
   -8.1691    0.0266    2.6959 H   0  0  0  0  0  0  0  0  0  0  0  0
  1  2  1  0  0  0  0
  1 35  1  0  0  0  0
  1 36  1  0  0  0  0
  1 37  1  0  0  0  0
  2 38  1  0  0  0  0
  2 39  1  0  0  0  0
  3  2  1  0  0  0  0
  3  4  1  0  0  0  0
  3  5  1  0  0  0  0
  3  7  1  0  0  0  0
  5  6  1  0  0  0  0
  5 40  1  0  0  0  0
  5 41  1  0  0  0  0
  6 42  1  0  0  0  0
  6 43  1  0  0  0  0
  6 44  1  0  0  0  0
  7  8  1  1  0  0  0
  7  9  1  0  0  0  0
  7 16  1  0  0  0  0
  9 45  1  0  0  0  0
  9 46  1  0  0  0  0
 10  9  1  0  0  0  0
 10 11  5  0  0  0  0
 10 15  5  0  0  0  0
 11 12  5  0  0  0  0
 11 47  1  0  0  0  0
 12 13  5  0  0  0  0
 12 48  1  0  0  0  0
 13 14  5  0  0  0  0
 13 49  1  0  0  0  0
 14 15  5  0  0  0  0
 14 50  1  0  0  0  0
 15 51  1  0  0  0  0
 16 52  1  0  0  0  0
 16 53  1  0  0  0  0
 17 16  1  0  0  0  0
 17 18  1  0  0  0  0
 17 54  1  0  0  0  0
 18 19  5  1  0  0  0
 20 18  1  6  0  0  0
 20 21  5  0  0  0  0
 20 25  5  0  0  0  0
 21 22  5  0  0  0  0
 21 55  1  0  0  0  0
 22 23  5  0  0  0  0
 22 56  1  0  0  0  0
 23 24  5  0  0  0  0
 23 34  1  6  0  0  0
 24 25  5  0  0  0  0
 24 26  1  6  0  0  0
 25 57  1  0  0  0  0
 26 27  1  0  0  0  0
 26 58  1  0  0  0  0
 27 29  1  0  0  0  0
 28 27  2  0  0  0  0
 29 30  2  0  0  0  0
 30 31  5  0  0  0  0
 30 59  1  0  0  0  0
 31 32  2  0  0  0  0
 31 60  1  0  0  0  0
 32 61  1  0  0  0  0
 33 29  1  0  0  0  0
 33 32  5  0  0  0  0
M  END
