71
final
C         -5.82884        0.81098        1.39831
C         -6.32810        0.25529        0.09477
C         -5.57490       -0.05594       -0.99365
C         -6.26250       -0.54841       -2.13500
C         -7.61159       -0.71421       -2.17450
C         -8.36108       -0.37815       -1.03283
N         -7.68798        0.08058        0.03231
H         -8.21112        0.32624        0.84907
N         -9.68099       -0.49724       -0.96725
C         -4.07075        0.13537       -1.04039
N         -3.36553       -0.88549       -0.28049
C         -2.06547       -0.68898        0.07179
O         -1.50551        0.36012       -0.05574
C         -1.37006       -1.91248        0.69063
H         -1.59238       -2.78685        0.09055
C         -1.82816       -2.14964        2.11361
C         -1.03751       -2.00525        3.15797
C          0.39249       -1.55387        3.06610
N          0.61934       -1.02299        1.73305
N          0.06377       -1.76364        0.68165
C          0.75298       -1.46722       -0.45885
O          0.48276       -1.77622       -1.57289
N          1.84863       -0.71427       -0.04999
C          1.79343       -0.50859        1.31306
O          2.61306        0.07724        1.97164
C          3.01366       -0.62317       -0.90634
H          2.64617       -0.42827       -1.90531
C          4.02881        0.46151       -0.51124
N          3.37761        1.75700       -0.16642
H          2.60247        1.92967       -0.78941
H          2.98207        1.63824        0.76047
C          4.27288        2.98488       -0.17447
C          3.39292        4.21378        0.05387
C          4.24648        5.48761        0.09390
C          5.35186        5.38304        1.14663
C          6.21582        4.14137        0.91877
C          5.37338        2.85822        0.87831
C          3.73425       -1.97681       -0.93827
O          3.41699       -2.88884       -0.25554
O          4.72090       -1.94956       -1.79562
C          5.48418       -3.15386       -1.97061
H         -6.13410        1.84768        1.50293
H         -6.23801        0.25030        2.23223
H         -4.75425        0.76006        1.45782
H         -5.69219       -0.79704       -3.01191
H         -8.11334       -1.08445       -3.04691
H        -10.19477       -0.82889       -1.75417
H        -10.21188       -0.24499       -0.16247
H         -3.75022        0.13069       -2.07644
H         -3.78861        1.09524       -0.63812
H         -3.67270       -1.82697       -0.39597
H         -2.84364       -2.47716        2.23957
H         -1.39984       -2.23365        4.14386
H          0.59483       -0.76148        3.77191
H          1.06422       -2.38102        3.27640
H          4.60190        0.16445        0.34940
H          4.69308        0.62425       -1.34509
H          4.70273        3.01546       -1.16859
H          2.64341        4.29039       -0.73037
H          2.86409        4.10357        0.99873
H          4.68562        5.65758       -0.88607
H          3.60336        6.33569        0.29756
H          5.97118        6.27216        1.11974
H          4.90765        5.34148        2.13853
H          6.76221        4.24136       -0.01604
H          6.95817        4.04515        1.70213
H          4.91896        2.68657        1.85181
H          6.01560        2.01051        0.66706
H          6.22618       -2.91682       -2.71352
H          5.94786       -3.43108       -1.03702
H          4.83671       -3.94527       -2.31328
