final
 OpenBabel08102315123D

 57 62  0  0  1  0  0  0  0  0999 V2000
   -4.3551    4.1112   -0.1231 C   0  0  0  0  0  0  0  0  0  0  0  0
   -4.7689    3.1724    0.8091 C   0  0  0  0  0  0  0  0  0  0  0  0
   -4.2055    1.9086    0.8213 C   0  0  0  0  0  0  0  0  0  0  0  0
   -3.2181    1.5709   -0.0984 C   0  0  0  0  0  0  0  0  0  0  0  0
   -2.8118    2.5160   -1.0349 C   0  0  0  0  0  0  0  0  0  0  0  0
   -3.3787    3.7796   -1.0476 C   0  0  0  0  0  0  0  0  0  0  0  0
   -2.6369    0.2075   -0.0882 C   0  0  0  0  0  0  0  0  0  0  0  0
   -3.3832   -0.8172   -0.0414 N   0  0  0  0  0  0  0  0  0  0  0  0
   -2.5856   -1.9453   -0.0271 N   0  0  0  0  0  0  0  0  0  0  0  0
   -1.2540   -1.6467   -0.0967 C   0  0  0  0  0  0  0  0  0  0  0  0
   -0.3431   -2.4358   -0.1251 O   0  0  0  0  0  0  0  0  0  0  0  0
   -1.2186   -0.1670   -0.1055 C   0  0  0  0  0  0  0  0  0  0  0  0
   -0.1723    0.6735   -0.0235 C   0  0  0  0  0  0  0  0  0  0  0  0
    1.2509    0.4423    0.0210 C   0  0  2  0  0  0  0  0  0  0  0  0
    1.9792   -0.7306    0.0152 C   0  0  0  0  0  0  0  0  0  0  0  0
    3.2597   -0.4045    0.1578 N   0  0  2  0  0  0  0  0  0  0  0  0
    3.4392    0.9242    0.2460 N   0  0  0  0  0  0  0  0  0  0  0  0
    2.2580    1.4518    0.1612 C   0  0  2  0  0  0  0  0  0  0  0  0
    2.1088    2.9254    0.2270 C   0  0  0  0  0  0  0  0  0  0  0  0
    2.7467    3.6547    1.2217 C   0  0  0  0  0  0  0  0  0  0  0  0
    2.5936    5.0292    1.2389 C   0  0  0  0  0  0  0  0  0  0  0  0
    1.8711    5.6994    0.3583 N   0  0  0  0  0  0  0  0  0  0  0  0
    1.2728    5.0058   -0.5907 C   0  0  0  0  0  0  0  0  0  0  0  0
    1.3567    3.6281   -0.7047 C   0  0  0  0  0  0  0  0  0  0  0  0
    4.3786   -1.2788    0.1927 C   0  0  0  0  0  0  0  0  0  0  0  0
    5.6066   -0.8322   -0.2710 C   0  0  0  0  0  0  0  0  0  0  0  0
    6.6925   -1.6890   -0.2453 C   0  0  0  0  0  0  0  0  0  0  0  0
    6.5582   -2.9844    0.2293 C   0  0  0  0  0  0  0  0  0  0  0  0
    5.3276   -3.4185    0.6916 C   0  0  0  0  0  0  0  0  0  0  0  0
    4.2357   -2.5668    0.6844 C   0  0  0  0  0  0  0  0  0  0  0  0
   -3.2082   -3.2161   -0.0559 C   0  0  0  0  0  0  0  0  0  0  0  0
   -4.5351   -3.3113   -0.4607 C   0  0  0  0  0  0  0  0  0  0  0  0
   -5.1613   -4.5446   -0.4834 C   0  0  0  0  0  0  0  0  0  0  0  0
   -4.4793   -5.6915   -0.1127 C   0  0  0  0  0  0  0  0  0  0  0  0
   -3.1588   -5.5886    0.2883 C   0  0  0  0  0  0  0  0  0  0  0  0
   -2.5182   -4.3612    0.3252 C   0  0  0  0  0  0  0  0  0  0  0  0
   -4.7929    5.0932   -0.1305 H   0  0  0  0  0  0  0  0  0  0  0  0
   -5.5287    3.4245    1.5267 H   0  0  0  0  0  0  0  0  0  0  0  0
   -4.5256    1.1784    1.5408 H   0  0  0  0  0  0  0  0  0  0  0  0
   -2.0723    2.2568   -1.7712 H   0  0  0  0  0  0  0  0  0  0  0  0
   -3.0634    4.4994   -1.7814 H   0  0  0  0  0  0  0  0  0  0  0  0
   -0.4361    1.7136    0.0412 H   0  0  0  0  0  0  0  0  0  0  0  0
    1.6415   -1.7351   -0.0925 H   0  0  0  0  0  0  0  0  0  0  0  0
    3.3467    3.1614    1.9619 H   0  0  0  0  0  0  0  0  0  0  0  0
    3.0759    5.6152    2.0012 H   0  0  0  0  0  0  0  0  0  0  0  0
    0.6989    5.5708   -1.3040 H   0  0  0  0  0  0  0  0  0  0  0  0
    0.8675    3.1262   -1.5186 H   0  0  0  0  0  0  0  0  0  0  0  0
    5.7018    0.1696   -0.6403 H   0  0  0  0  0  0  0  0  0  0  0  0
    7.6446   -1.3428   -0.6045 H   0  0  0  0  0  0  0  0  0  0  0  0
    7.4048   -3.6463    0.2424 H   0  0  0  0  0  0  0  0  0  0  0  0
    5.2139   -4.4174    1.0717 H   0  0  0  0  0  0  0  0  0  0  0  0
    3.2917   -2.9017    1.0719 H   0  0  0  0  0  0  0  0  0  0  0  0
   -5.0679   -2.4271   -0.7468 H   0  0  0  0  0  0  0  0  0  0  0  0
   -6.1882   -4.6047   -0.7973 H   0  0  0  0  0  0  0  0  0  0  0  0
   -4.9693   -6.6482   -0.1351 H   0  0  0  0  0  0  0  0  0  0  0  0
   -2.6152   -6.4687    0.5829 H   0  0  0  0  0  0  0  0  0  0  0  0
   -1.4971   -4.2955    0.6356 H   0  0  0  0  0  0  0  0  0  0  0  0
  1  2  5  0  0  0  0
  1  6  5  0  0  0  0
  1 37  1  0  0  0  0
  2  3  5  0  0  0  0
  2 38  1  0  0  0  0
  3  4  5  0  0  0  0
  3 39  1  0  0  0  0
  4  5  5  0  0  0  0
  4  7  1  0  0  0  0
  5  6  5  0  0  0  0
  5 40  1  0  0  0  0
  6 41  1  0  0  0  0
  7 12  1  0  0  0  0
  8  7  2  0  0  0  0
  8  9  1  0  0  0  0
  9 10  1  0  0  0  0
  9 31  1  0  0  0  0
 10 12  1  0  0  0  0
 11 10  2  0  0  0  0
 12 13  2  0  0  0  0
 13 42  1  0  0  0  0
 14 13  5  1  0  0  0
 14 15  5  0  0  0  0
 14 18  5  0  0  0  0
 15 43  1  0  0  0  0
 16 15  5  0  0  0  0
 16 25  1  6  0  0  0
 17 16  5  0  0  0  0
 17 18  5  0  0  0  0
 18 19  1  1  0  0  0
 19 20  5  0  0  0  0
 19 24  5  0  0  0  0
 20 21  5  0  0  0  0
 20 44  1  0  0  0  0
 21 45  1  0  0  0  0
 22 21  5  0  0  0  0
 22 23  5  0  0  0  0
 23 24  5  0  0  0  0
 23 46  1  0  0  0  0
 24 47  1  0  0  0  0
 25 26  5  0  0  0  0
 25 30  5  0  0  0  0
 26 27  5  0  0  0  0
 26 48  1  0  0  0  0
 27 28  5  0  0  0  0
 27 49  1  0  0  0  0
 28 29  5  0  0  0  0
 28 50  1  0  0  0  0
 29 30  5  0  0  0  0
 29 51  1  0  0  0  0
 30 52  1  0  0  0  0
 31 32  5  0  0  0  0
 31 36  5  0  0  0  0
 32 33  5  0  0  0  0
 32 53  1  0  0  0  0
 33 34  5  0  0  0  0
 33 54  1  0  0  0  0
 34 35  5  0  0  0  0
 34 55  1  0  0  0  0
 35 36  5  0  0  0  0
 35 56  1  0  0  0  0
 36 57  1  0  0  0  0
M  END
