final
 OpenBabel08102315123D

 55 57  0  0  1  0  0  0  0  0999 V2000
    4.0036   -4.4412    1.4393 C   0  0  0  0  0  0  0  0  0  0  0  0
    5.1416   -3.4595    1.2447 C   0  0  0  0  0  0  0  0  0  0  0  0
    4.6009   -2.2904    0.6879 O   0  0  0  0  0  0  0  0  0  0  0  0
    5.3909   -1.2230    0.4210 C   0  0  1  0  0  0  0  0  0  0  0  0
    6.7534   -1.1864    0.6275 C   0  0  0  0  0  0  0  0  0  0  0  0
    7.4742   -0.0362    0.3165 C   0  0  0  0  0  0  0  0  0  0  0  0
    6.8238    1.0612   -0.1971 C   0  0  0  0  0  0  0  0  0  0  0  0
    5.4481    1.0321   -0.4089 C   0  0  0  0  0  0  0  0  0  0  0  0
    4.7202   -0.1034   -0.1032 C   0  0  2  0  0  0  0  0  0  0  0  0
    3.3384   -0.2314   -0.2766 N   0  0  0  0  0  0  0  0  0  0  0  0
    2.4630    0.6814   -0.7415 C   0  0  0  0  0  0  0  0  0  0  0  0
    2.7219    1.7799   -1.1456 O   0  0  0  0  0  0  0  0  0  0  0  0
    1.0210    0.1346   -0.7659 C   0  0  0  0  0  0  0  0  0  0  0  0
    0.8638   -1.0389   -0.6612 O   0  0  0  0  0  0  0  0  0  0  0  0
   -0.0802    1.1245   -1.1134 C   0  0  1  0  0  0  0  0  0  0  0  0
    0.1102    1.3762   -2.1500 H   0  0  0  0  0  0  0  0  0  0  0  0
   -1.4662    0.4954   -1.0398 C   0  0  0  0  0  0  0  0  0  0  0  0
   -2.3373    0.6095   -2.2534 C   0  0  1  0  0  0  0  0  0  0  0  0
   -3.5282    0.0383   -2.2096 N   0  0  0  0  0  0  0  0  0  0  0  0
   -3.9012   -0.5620   -1.0620 C   0  0  2  0  0  0  0  0  0  0  0  0
   -5.1731   -1.1742   -0.9845 C   0  0  0  0  0  0  0  0  0  0  0  0
   -5.5698   -1.7649    0.1825 C   0  0  1  0  0  0  0  0  0  0  0  0
   -4.7689   -1.8012    1.3348 C   0  0  0  0  0  0  0  0  0  0  0  0
   -3.5363   -1.2150    1.2645 C   0  0  0  0  0  0  0  0  0  0  0  0
   -3.0929   -0.6000    0.0852 C   0  0  1  0  0  0  0  0  0  0  0  0
   -1.8398   -0.0373    0.0519 N   0  0  0  0  0  0  0  0  0  0  0  0
   -6.8871   -2.3864    0.2369 N   0  0  0  0  0  0  0  0  0  0  0  0
   -7.5728   -2.3629   -0.7428 O   0  0  0  0  0  0  0  0  0  0  0  0
   -7.2261   -2.8957    1.2675 O   0  0  0  0  0  0  0  0  0  0  0  0
   -1.9013    1.2539   -3.2159 O   0  0  0  0  0  0  0  0  0  0  0  0
   -0.0616    2.4292   -0.3274 C   0  0  0  0  0  0  0  0  0  0  0  0
   -0.4284    3.5513   -0.7675 N   0  0  0  0  0  0  0  0  0  0  0  0
   -0.7841    3.7179   -2.0485 N   0  0  0  0  0  0  0  0  0  0  0  0
    0.3862    2.3749    1.0901 C   0  0  0  0  0  0  0  0  0  0  0  0
    0.9579    1.4274    1.5449 O   0  0  0  0  0  0  0  0  0  0  0  0
    0.1129    3.4504    1.8025 O   0  0  0  0  0  0  0  0  0  0  0  0
    0.5517    3.4436    3.1431 C   0  0  0  0  0  0  0  0  0  0  0  0
    3.2547   -4.0269    2.1037 H   0  0  0  0  0  0  0  0  0  0  0  0
    3.5299   -4.6657    0.4910 H   0  0  0  0  0  0  0  0  0  0  0  0
    4.3767   -5.3659    1.8691 H   0  0  0  0  0  0  0  0  0  0  0  0
    5.6186   -3.2296    2.1930 H   0  0  0  0  0  0  0  0  0  0  0  0
    5.8951   -3.8709    0.5793 H   0  0  0  0  0  0  0  0  0  0  0  0
    7.2652   -2.0404    1.0273 H   0  0  0  0  0  0  0  0  0  0  0  0
    8.5369   -0.0177    0.4810 H   0  0  0  0  0  0  0  0  0  0  0  0
    7.3715    1.9539   -0.4410 H   0  0  0  0  0  0  0  0  0  0  0  0
    4.9413    1.8843   -0.8087 H   0  0  0  0  0  0  0  0  0  0  0  0
    2.9403   -1.1068   -0.0158 H   0  0  0  0  0  0  0  0  0  0  0  0
   -5.8060   -1.1594   -1.8474 H   0  0  0  0  0  0  0  0  0  0  0  0
   -5.1226   -2.2765    2.2259 H   0  0  0  0  0  0  0  0  0  0  0  0
   -2.8732   -1.2152    2.1102 H   0  0  0  0  0  0  0  0  0  0  0  0
   -1.3081    4.5577   -2.1505 H   0  0  0  0  0  0  0  0  0  0  0  0
   -1.1846    2.9303   -2.5363 H   0  0  0  0  0  0  0  0  0  0  0  0
    0.2438    4.3920    3.5570 H   0  0  0  0  0  0  0  0  0  0  0  0
    0.0959    2.6312    3.6914 H   0  0  0  0  0  0  0  0  0  0  0  0
    1.6272    3.3457    3.1946 H   0  0  0  0  0  0  0  0  0  0  0  0
  1  2  1  0  0  0  0
  1 38  1  0  0  0  0
  1 39  1  0  0  0  0
  1 40  1  0  0  0  0
  2 41  1  0  0  0  0
  2 42  1  0  0  0  0
  3  2  1  0  0  0  0
  4  3  1  6  0  0  0
  4  5  5  0  0  0  0
  4  9  5  0  0  0  0
  5  6  5  0  0  0  0
  5 43  1  0  0  0  0
  6  7  5  0  0  0  0
  6 44  1  0  0  0  0
  7  8  5  0  0  0  0
  7 45  1  0  0  0  0
  8  9  5  0  0  0  0
  8 46  1  0  0  0  0
  9 10  1  1  0  0  0
 10 11  1  0  0  0  0
 10 47  1  0  0  0  0
 11 13  1  0  0  0  0
 12 11  2  0  0  0  0
 13 15  1  0  0  0  0
 14 13  2  0  0  0  0
 15 16  1  6  0  0  0
 17 15  1  0  0  0  0
 17 18  1  0  0  0  0
 18 30  5  1  0  0  0
 19 18  5  0  0  0  0
 20 19  5  1  0  0  0
 20 21  5  0  0  0  0
 20 25  5  0  0  0  0
 21 22  5  0  0  0  0
 21 48  1  0  0  0  0
 22 23  5  0  0  0  0
 22 27  1  1  0  0  0
 23 24  5  0  0  0  0
 23 49  1  0  0  0  0
 24 50  1  0  0  0  0
 25 24  5  6  0  0  0
 26 17  2  0  0  0  0
 26 25  1  0  0  0  0
 28 27  5  0  0  0  0
 29 27  5  0  0  0  0
 31 15  1  0  0  0  0
 31 34  1  0  0  0  0
 32 31  2  0  0  0  0
 32 33  1  0  0  0  0
 33 51  1  0  0  0  0
 33 52  1  0  0  0  0
 35 34  2  0  0  0  0
 36 34  1  0  0  0  0
 36 37  1  0  0  0  0
 37 53  1  0  0  0  0
 37 54  1  0  0  0  0
 37 55  1  0  0  0  0
M  END
