34
final
C         -7.48366       -1.47660       -0.00008
C         -6.41428       -2.40801        0.00029
C         -5.12574       -1.98002       -0.00004
C         -4.83624       -0.59117       -0.00074
C         -5.89469        0.33475       -0.00109
C         -7.23127       -0.14234       -0.00075
C         -5.56145        1.71177       -0.00178
C         -4.25830        2.08825       -0.00208
C         -3.27361        1.07164       -0.00166
N         -3.54209       -0.19457       -0.00102
C         -1.82114        1.49128       -0.00205
O         -1.50551        2.64082       -0.00214
N         -0.95631        0.44084       -0.00112
N          0.37333        0.64417       -0.00066
C          1.10682       -0.37425        0.00015
C          2.57983       -0.29251        0.00076
C          3.30958       -1.47428       -0.00143
C          4.68489       -1.49990       -0.00101
C          5.37996       -0.31203        0.00168
C          4.69143        0.88162        0.00403
C          3.31345        0.89079        0.00363
F          2.72218        2.05920        0.00609
F          5.35882        2.01686        0.00678
F          6.69255       -0.31531        0.00216
F          5.33173       -2.64754       -0.00320
F          2.67411       -2.63509       -0.00398
H         -8.49667       -1.83594        0.00019
H         -6.63315       -3.46046        0.00084
H         -4.30220       -2.66935        0.00023
H         -8.03843        0.56860       -0.00101
H         -6.34689        2.44663       -0.00208
H         -3.95041        3.11424       -0.00262
H         -1.33560       -0.48319       -0.00069
H          0.69649       -1.37298        0.00032
